*Heading
** Job name: Job-2 Model name: Base_mixed_radius
** Generated by: Abaqus/CAE 6.14-1
*Preprint, echo=NO, model=NO, history=NO, contact=NO
**
** PARTS
**
*Part, name=PART-1
*Node
      1, -0.0250000004, 0.00499999989,           0.
      2, -0.0250000004, 0.00353553006, 0.00353553006
      3, -0.0250000004,           0., 0.00499999989
      4, -0.0250000004, -0.00353553006, 0.00353553006
      5, -0.0250000004, -0.00499999989,           0.
      6, -0.0250000004, -0.00353553006, -0.00353553006
      7, -0.0250000004,           0., -0.00499999989
      8, -0.0250000004, 0.00353553006, -0.00353553006
      9, -0.0250000004, 0.00461940002, 0.00191342004
     10, -0.0250000004, 0.00191342004, 0.00461940002
     11, -0.0250000004, -0.00191342004, 0.00461940002
     12, -0.0250000004, -0.00461940002, 0.00191342004
     13, -0.0250000004, -0.00461940002, -0.00191342004
     14, -0.0250000004, -0.00191342004, -0.00461940002
     15, -0.0250000004, 0.00191342004, -0.00461940002
     16, -0.0250000004, 0.00461940002, -0.00191342004
     17, 0.0250000004, 0.00499999989,           0.
     18, 0.0250000004, 0.00353553006, -0.00353553006
     19, 0.0250000004,           0., -0.00499999989
     20, 0.0250000004, -0.00353553006, -0.00353553006
** ... 332 like lines cut
*Element, type=STRI65
1,  17,  56,  24, 377, 378, 379
2,  43,  63,  56, 382, 383, 381
3,  42,  70,  63, 386, 387, 385
4,  41,  77,  70, 390, 391, 389
5,  40,  84,  77, 394, 395, 393
6,  39,  91,  84, 353, 354, 355
13,  24,  57,  23, 397, 398, 399
14,  56,  64,  57, 401, 402, 400
15,  63,  71,  64, 404, 405, 403
16,  77,  78,  70, 407, 408, 391
17,  84,  85,  77, 359, 410, 395
18,  84,  92,  85, 357, 358, 359
25,  23,  58,  22, 412, 413, 414
26,  57,  65,  58, 416, 417, 415
27,  64,  72,  65, 419, 420, 418
28,  78,  79,  71, 422, 423, 409
29,  85,  86,  78, 362, 425, 411
30,  85,  93,  86, 360, 361, 362
37,  22,  59,  21, 427, 428, 429
38,  58,  66,  59, 431, 432, 430
** ... 76 like lines cut
*Element, type=S8R
 7,  38,  37,  98,  91,  49, 145, 146, 143
 8,  37,  36, 105,  98,  48, 147, 148, 145
 9,  36,  35, 112, 105,  47, 149, 150, 147
10,  35,  34, 119, 112,  46, 151, 152, 149
11,  34,  33, 126, 119,  45, 153, 154, 151
12,  33,   1,   2, 126,  44,   9, 155, 153
19,  91,  98,  99,  92, 146, 168, 169, 166
20,  98, 105, 106,  99, 148, 170, 171, 168
21, 105, 112, 113, 106, 150, 172, 173, 170
22, 112, 119, 120, 113, 152, 174, 175, 172
23, 119, 126, 127, 120, 154, 176, 177, 174
24, 126,   2,   3, 127, 155,  10, 178, 176
31,  92,  99, 100,  93, 169, 191, 192, 189
32,  99, 106, 107, 100, 171, 193, 194, 191
33, 106, 113, 114, 107, 173, 195, 196, 193
34, 113, 120, 121, 114, 175, 197, 198, 195
35, 120, 127, 128, 121, 177, 199, 200, 197
36, 127,   3,   4, 128, 178,  11, 201, 199
43,  93, 100, 101,  94, 192, 214, 215, 212
44, 100, 107, 108, 101, 194, 216, 217, 214
** ... 28 like lines cut
*Nset, nset=LEFTFIXED, generate
  1,  16,   1
*Elset, elset=EALL, generate
   1,  144,    1
*Elset, elset=SOLID, generate
   1,  144,    1
*Elset, elset=_PICKEDSET8, internal, generate
   1,  144,    1
*Nset, nset=NALL
   1,   2,   3,   4,   5,   6,   7,   8,   9,  10,  11,  12,  13,  14,  15,  16
  17,  18,  19,  20,  21,  22,  23,  24,  33,  34,  35,  36,  37,  38,  39,  40
  41,  42,  43,  44,  45,  46,  47,  48,  49,  56,  57,  58,  59,  60,  61,  62
  63,  64,  65,  66,  67,  68,  69,  70,  71,  72,  73,  74,  75,  76,  77,  78
  79,  80,  81,  82,  83,  84,  85,  86,  87,  88,  89,  90,  91,  92,  93,  94
  95,  96,  97,  98,  99, 100, 101, 102, 103, 104, 105, 106, 107, 108, 109, 110
 111, 112, 113, 114, 115, 116, 117, 118, 119, 120, 121, 122, 123, 124, 125, 126
 127, 128, 129, 130, 131, 132, 143, 145, 146, 147, 148, 149, 150, 151, 152, 153
 154, 155, 166, 168, 169, 170, 171, 172, 173, 174, 175, 176, 177, 178, 189, 191
 192, 193, 194, 195, 196, 197, 198, 199, 200, 201, 212, 214, 215, 216, 217, 218
 219, 220, 221, 222, 223, 224, 235, 237, 238, 239, 240, 241, 242, 243, 244, 245
 246, 247, 258, 260, 261, 262, 263, 264, 265, 266, 267, 268, 269, 270, 281, 283
 284, 285, 286, 287, 288, 289, 290, 291, 292, 293, 299, 300, 301, 302, 303, 304
 353, 354, 355, 356, 357, 358, 359, 360, 361, 362, 363, 364, 365, 366, 367, 368
 369, 370, 371, 372, 373, 374, 375, 376, 377, 378, 379, 380, 381, 382, 383, 384
 385, 386, 387, 388, 389, 390, 391, 392, 393, 394, 395, 396, 397, 398, 399, 400
 401, 402, 403, 404, 405, 406, 407, 408, 409, 410, 411, 412, 413, 414, 415, 416
 417, 418, 419, 420, 421, 422, 423, 424, 425, 426, 427, 428, 429, 430, 431, 432
 433, 434, 435, 436, 437, 438, 439, 440, 441, 442, 443, 444, 445, 446, 447, 448
 449, 450, 451, 452, 453, 454, 455, 456, 457, 458, 459, 460, 461, 462, 463, 464
 465, 466, 467, 468, 469, 470, 471, 472, 473, 474, 475, 476, 477, 478, 479, 480
 481, 482, 483, 484, 485, 486, 487, 488, 489, 490, 491, 492, 493, 494, 495, 496
*Nset, nset=RIGHTFIXED
  17,  18,  19,  20,  21,  22,  23,  24, 379, 399, 414, 429, 444, 459, 474, 488
*Nset, nset=TOP
   1,  17,  33,  34,  35,  36,  37,  38,  39,  40,  41,  42,  43,  44,  45,  46
  47,  48,  49, 356, 380, 384, 388, 392, 396
** Section: ShellSection
*Shell Section, elset=_PICKEDSET8, material=MATERIAL, offset=-0.5
0.001, 5
*End Part
**  
**
** ASSEMBLY
**
*Assembly, name=Assembly
**  
*Instance, name=PART-1-1, part=PART-1
*End Instance
**  
*Elset, elset=EALL, instance=PART-1-1, generate
  1,  96,   1
*Nset, nset=LEFTFIXED, instance=PART-1-1, generate
  1,  16,   1
*Nset, nset=NALL, instance=PART-1-1
   1,   2,   3,   4,   5,   6,   7,   8,   9,  10,  11,  12,  13,  14,  15,  16
  17,  18,  19,  20,  21,  22,  23,  24,  33,  34,  35,  36,  37,  38,  39,  40
  41,  42,  43,  44,  45,  46,  47,  48,  49,  56,  57,  58,  59,  60,  61,  62
  63,  64,  65,  66,  67,  68,  69,  70,  71,  72,  73,  74,  75,  76,  77,  78
  79,  80,  81,  82,  83,  84,  85,  86,  87,  88,  89,  90,  91,  92,  93,  94
  95,  96,  97,  98,  99, 100, 101, 102, 103, 104, 105, 106, 107, 108, 109, 110
 111, 112, 113, 114, 115, 116, 117, 118, 119, 120, 121, 122, 123, 124, 125, 126
 127, 128, 129, 130, 131, 132, 143, 145, 146, 147, 148, 149, 150, 151, 152, 153
 154, 155, 166, 168, 169, 170, 171, 172, 173, 174, 175, 176, 177, 178, 189, 191
 192, 193, 194, 195, 196, 197, 198, 199, 200, 201, 212, 214, 215, 216, 217, 218
 219, 220, 221, 222, 223, 224, 235, 237, 238, 239, 240, 241, 242, 243, 244, 245
 246, 247, 258, 260, 261, 262, 263, 264, 265, 266, 267, 268, 269, 270, 281, 283
 284, 285, 286, 287, 288, 289, 290, 291, 292, 293, 299, 300, 301, 302, 303, 304
 353, 354, 355, 356, 357, 358, 359, 360, 361, 362, 363, 364, 365, 366, 367, 368
 369, 370, 371, 372, 373, 374, 375, 376, 377, 378, 379, 380, 381, 382, 383, 384
 385, 386, 387, 388, 389, 390, 391, 392, 393, 394, 395, 396, 397, 398, 399, 400
 401, 402, 403, 404, 405, 406, 407, 408, 409, 410, 411, 412, 413, 414, 415, 416
 417, 418, 419, 420, 421, 422, 423, 424, 425, 426, 427, 428, 429, 430, 431, 432
 433, 434, 435, 436, 437, 438, 439, 440, 441, 442, 443, 444, 445, 446, 447, 448
 449, 450, 451, 452, 453, 454, 455, 456, 457, 458, 459, 460, 461, 462, 463, 464
 465, 466, 467, 468, 469, 470, 471, 472, 473, 474, 475, 476, 477, 478, 479, 480
 481, 482, 483, 484, 485, 486, 487, 488, 489, 490, 491, 492, 493, 494, 495, 496
*Nset, nset=RIGHTFIXED, instance=PART-1-1
  17,  18,  19,  20,  21,  22,  23,  24, 379, 399, 414, 429, 444, 459, 474, 488
*Elset, elset=SOLID, instance=PART-1-1, generate
  1,  144,   1
*Nset, nset=TOP, instance=PART-1-1
   1,  17,  33,  34,  35,  36,  37,  38,  39,  40,  41,  42,  43,  44,  45,  46
  47,  48,  49, 356, 380, 384, 388, 392, 396
*Nset, nset=WALLOUTSIDE, instance=PART-1-1
   1,   2,   3,   4,   5,   6,   7,   8,   9,  10,  11,  12,  13,  14,  15,  16
  17,  18,  19,  20,  21,  22,  23,  24,  33,  34,  35,  36,  37,  38,  39,  40
  41,  42,  43,  44,  45,  46,  47,  48,  49,  56,  57,  58,  59,  60,  61,  62
  63,  64,  65,  66,  67,  68,  69,  70,  71,  72,  73,  74,  75,  76,  77,  78
  79,  80,  81,  82,  83,  84,  85,  86,  87,  88,  89,  90,  91,  92,  93,  94
  95,  96,  97,  98,  99, 100, 101, 102, 103, 104, 105, 106, 107, 108, 109, 110
 111, 112, 113, 114, 115, 116, 117, 118, 119, 120, 121, 122, 123, 124, 125, 126
 127, 128, 129, 130, 131, 132, 143, 145, 146, 147, 148, 149, 150, 151, 152, 153
 154, 155, 166, 168, 169, 170, 171, 172, 173, 174, 175, 176, 177, 178, 189, 191
 192, 193, 194, 195, 196, 197, 198, 199, 200, 201, 212, 214, 215, 216, 217, 218
 219, 220, 221, 222, 223, 224, 235, 237, 238, 239, 240, 241, 242, 243, 244, 245
 246, 247, 258, 260, 261, 262, 263, 264, 265, 266, 267, 268, 269, 270, 281, 283
 284, 285, 286, 287, 288, 289, 290, 291, 292, 293, 299, 300, 301, 302, 303, 304
 353, 354, 355, 356, 357, 358, 359, 360, 361, 362, 363, 364, 365, 366, 367, 368
 369, 370, 371, 372, 373, 374, 375, 376, 377, 378, 379, 380, 381, 382, 383, 384
 385, 386, 387, 388, 389, 390, 391, 392, 393, 394, 395, 396, 397, 398, 399, 400
 401, 402, 403, 404, 405, 406, 407, 408, 409, 410, 411, 412, 413, 414, 415, 416
 417, 418, 419, 420, 421, 422, 423, 424, 425, 426, 427, 428, 429, 430, 431, 432
 433, 434, 435, 436, 437, 438, 439, 440, 441, 442, 443, 444, 445, 446, 447, 448
 449, 450, 451, 452, 453, 454, 455, 456, 457, 458, 459, 460, 461, 462, 463, 464
 465, 466, 467, 468, 469, 470, 471, 472, 473, 474, 475, 476, 477, 478, 479, 480
 481, 482, 483, 484, 485, 486, 487, 488, 489, 490, 491, 492, 493, 494, 495, 496
*Elset, elset=_MOVINGSURFACE0_SNEG, internal, instance=PART-1-1, generate
   1,  144,    1
*Surface, type=ELEMENT, name=MOVINGSURFACE0
_MOVINGSURFACE0_SNEG, SNEG
*End Assembly
** 
** MATERIALS
** 
*Material, name=MATERIAL
*Density
1200.,
*Elastic
300000., 0.3
** 
** BOUNDARY CONDITIONS
** 
** Name: Disp-BC-1 Type: Displacement/Rotation
*Boundary
LEFTFIXED, 1, 1
** Name: Disp-BC-2 Type: Displacement/Rotation
*Boundary
LEFTFIXED, 2, 2
** Name: Disp-BC-3 Type: Displacement/Rotation
*Boundary
LEFTFIXED, 3, 3
** Name: Disp-BC-4 Type: Displacement/Rotation
*Boundary
RIGHTFIXED, 1, 1
** Name: Disp-BC-5 Type: Displacement/Rotation
*Boundary
RIGHTFIXED, 2, 2
** Name: Disp-BC-6 Type: Displacement/Rotation
*Boundary
RIGHTFIXED, 3, 3
** ----------------------------------------------------------------
** 
** STEP: Step-1
** 
*Step, name=Step-1, nlgeom=YES, inc=1
*Dynamic,application=QUASI-STATIC,direct,nohaf,initial=NO
0.0001,0.0001,
** 
** LOADS
** 
** Name: SURFFORCE-1   Type: Pressure
*Dsload, op=NEW
MOVINGSURFACE0, PNU, 1.
** Name: SurfaceTraction-1   Type: Surface traction
*Dsload, op=NEW
MOVINGSURFACE0, TRVECNU, 1., 1., 0., 0.
** 
** OUTPUT REQUESTS
** 
*Restart, write, overlay, frequency=99999
** 
** FIELD OUTPUT: F-Output-1
** 
*Output, field, frequency=99999
*Node Output, nset=WALLOUTSIDE
COORD, U
** 
** FIELD OUTPUT: F-Output-2
** 
*Output, field, variable=PRESELECT, frequency=99999
** 
** HISTORY OUTPUT: H-Output-1
** 
*Output, history, variable=PRESELECT, frequency=99999
*End Step
