/*---------------------------------------------------------------------------*\
| =========                 |                                                 |
| \\      /  F ield         | OpenFOAM: The Open Source CFD Toolbox           |
|  \\    /   O peration     | Version:  4.1                                   |
|   \\  /    A nd           | Web:      www.OpenFOAM.org                      |
|    \\/     M anipulation  |                                                 |
\*---------------------------------------------------------------------------*/
Build  : 4.1
Exec   : CoCoNuT_pimpleFoam -parallel
Date   : Nov 18 2020
Time   : 11:52:48
Host   : "cfdclu27.ugent.be"
PID    : 20288
Case   : /lusers/temp/mathieu/PycharmProjects/coconut/test_examples/tube_OpenFoam3d_abaqus3d2Cores/CFD
nProcs : 2
Slaves : 1("cfdclu27.ugent.be.20289")
Pstream initialized with:
    floatTransfer      : 0
    nProcsSimpleSum    : 0
    commsType          : nonBlocking
    polling iterations : 0
sigFpe : Enabling floating point exception trapping (FOAM_SIGFPE).
fileModificationChecking : Monitoring run-time modified files using timeStampMaster
allowSystemOperations : Allowing user-supplied system call operations

// * * * * * * * * * * * * * * * * * * * * * * * * * * * * * * * * * * * * * //
Create time

Create mesh for time = 0.0000

Selecting dynamicFvMesh dynamicMotionSolverFvMesh
Selecting motion solver: displacementLaplacian
Selecting motion diffusion: inverseDistance

PIMPLE: no residual control data found. Calculations will employ 3 corrector loops

Reading field p

Reading field U

Reading/calculating face flux field phi

Selecting incompressible transport model Newtonian
Selecting turbulence model type laminar
No MRF models present

Reading/calculating face velocity Uf

No finite volume options present

Courant Number mean: 0 max: 0
surfaceRegion PRESSURE_mantle:
    total faces  = 1536
    total area   = 0.0015683


wallShearStress wallShearStress:
    processing all wall patches

surfaceRegion TRACTION_mantle:
    total faces  = 1536
    total area   = 0.0015683


Courant Number mean: 0 max: 0
0.0000

Time = 0.0001

Reading pointDisplacement

prev_runTime0.0000
GAMG:  Solving for cellDisplacementx, Initial residual = 0, Final residual = 0, No Iterations 0
GAMG:  Solving for cellDisplacementy, Initial residual = 0, Final residual = 0, No Iterations 0
GAMG:  Solving for cellDisplacementz, Initial residual = 0, Final residual = 0, No Iterations 0
PIMPLE: iteration 1
smoothSolver:  Solving for Ux, Initial residual = 1, Final residual = 1.1796e-06, No Iterations 1
smoothSolver:  Solving for Uy, Initial residual = 0.73907, Final residual = 2.1807e-06, No Iterations 1
smoothSolver:  Solving for Uz, Initial residual = 0.73907, Final residual = 2.1793e-06, No Iterations 1
DICPCG:  Solving for p, Initial residual = 1, Final residual = 0.0054977, No Iterations 38
DICPCG:  Solving for p, Initial residual = 0.0027495, Final residual = 2.5404e-05, No Iterations 12
time step continuity errors : sum local = 1.8222e-08, global = -2.9212e-09, cumulative = -2.9212e-09
PIMPLE: iteration 2
smoothSolver:  Solving for Ux, Initial residual = 0.28312, Final residual = 2.5237e-06, No Iterations 1
smoothSolver:  Solving for Uy, Initial residual = 0.14583, Final residual = 8.5907e-07, No Iterations 1
smoothSolver:  Solving for Uz, Initial residual = 0.14641, Final residual = 6.7443e-07, No Iterations 1
DICPCG:  Solving for p, Initial residual = 0.19744, Final residual = 0.0018265, No Iterations 39
DICPCG:  Solving for p, Initial residual = 0.0015283, Final residual = 1.3915e-05, No Iterations 15
time step continuity errors : sum local = 1.0407e-08, global = -1.5742e-09, cumulative = -4.4954e-09
PIMPLE: iteration 3
smoothSolver:  Solving for Ux, Initial residual = 0.62743, Final residual = 2.8872e-09, No Iterations 2
smoothSolver:  Solving for Uy, Initial residual = 0.038209, Final residual = 2.5129e-10, No Iterations 2
smoothSolver:  Solving for Uz, Initial residual = 0.033786, Final residual = 1.8137e-10, No Iterations 2
DICPCG:  Solving for p, Initial residual = 0.046627, Final residual = 0.00042814, No Iterations 37
DICPCG:  Solving for p, Initial residual = 0.00042405, Final residual = 8.5903e-10, No Iterations 50
time step continuity errors : sum local = 8.7754e-13, global = 1.4501e-14, cumulative = -4.4954e-09
ExecutionTime = 0.54 s  ClockTime = 6 s

surfaceRegion PRESSURE_mantle write:
    none(mantle) of p = 0

surfaceRegion TRACTION_mantle write:
    none(mantle) of wallShearStress = (0 0 0)

I get past the save

Reading pointDisplacement

prev_runTime0.0000
GAMG:  Solving for cellDisplacementx, Initial residual = 1, Final residual = 9.8932e-06, No Iterations 7
GAMG:  Solving for cellDisplacementy, Initial residual = 1, Final residual = 3.7421e-06, No Iterations 8
GAMG:  Solving for cellDisplacementz, Initial residual = 1, Final residual = 4.7431e-06, No Iterations 8
PIMPLE: iteration 1
smoothSolver:  Solving for Ux, Initial residual = 0.28522, Final residual = 1.9377e-06, No Iterations 1
smoothSolver:  Solving for Uy, Initial residual = 0.22789, Final residual = 2.3467e-06, No Iterations 1
smoothSolver:  Solving for Uz, Initial residual = 0.23212, Final residual = 2.3867e-06, No Iterations 1
DICPCG:  Solving for p, Initial residual = 0.02628, Final residual = 0.00023876, No Iterations 29
DICPCG:  Solving for p, Initial residual = 0.0044253, Final residual = 4.1764e-05, No Iterations 6
time step continuity errors : sum local = 3.1541e-08, global = -3.4665e-09, cumulative = -7.9619e-09
PIMPLE: iteration 2
smoothSolver:  Solving for Ux, Initial residual = 0.13147, Final residual = 4.253e-07, No Iterations 1
smoothSolver:  Solving for Uy, Initial residual = 0.13132, Final residual = 1.8704e-06, No Iterations 1
smoothSolver:  Solving for Uz, Initial residual = 0.13132, Final residual = 1.8688e-06, No Iterations 1
DICPCG:  Solving for p, Initial residual = 0.0044232, Final residual = 2.933e-05, No Iterations 29
DICPCG:  Solving for p, Initial residual = 0.00064805, Final residual = 6.2084e-06, No Iterations 6
time step continuity errors : sum local = 4.6626e-09, global = -4.0847e-10, cumulative = -8.3704e-09
PIMPLE: iteration 3
smoothSolver:  Solving for Ux, Initial residual = 0.057076, Final residual = 4.8391e-11, No Iterations 2
smoothSolver:  Solving for Uy, Initial residual = 0.061498, Final residual = 4.348e-10, No Iterations 2
smoothSolver:  Solving for Uz, Initial residual = 0.061496, Final residual = 4.3477e-10, No Iterations 2
DICPCG:  Solving for p, Initial residual = 0.0031491, Final residual = 2.1085e-05, No Iterations 29
DICPCG:  Solving for p, Initial residual = 0.00039866, Final residual = 7.5441e-10, No Iterations 49
time step continuity errors : sum local = 8.0413e-13, global = -3.1888e-15, cumulative = -8.3704e-09
ExecutionTime = 1.46 s  ClockTime = 23 s

surfaceRegion PRESSURE_mantle write:
    none(mantle) of p = 0

surfaceRegion TRACTION_mantle write:
    none(mantle) of wallShearStress = (0 0 0)

I get past the save

Reading pointDisplacement

prev_runTime0.0000
GAMG:  Solving for cellDisplacementx, Initial residual = 0.98273, Final residual = 6.1932e-06, No Iterations 8
GAMG:  Solving for cellDisplacementy, Initial residual = 0.9717, Final residual = 4.3492e-06, No Iterations 7
GAMG:  Solving for cellDisplacementz, Initial residual = 0.97171, Final residual = 3.5086e-06, No Iterations 7
PIMPLE: iteration 1
smoothSolver:  Solving for Ux, Initial residual = 0.0005648, Final residual = 1.6248e-08, No Iterations 1
smoothSolver:  Solving for Uy, Initial residual = 0.065754, Final residual = 9.4548e-07, No Iterations 1
smoothSolver:  Solving for Uz, Initial residual = 0.065755, Final residual = 9.3238e-07, No Iterations 1
DICPCG:  Solving for p, Initial residual = 0.53777, Final residual = 0.004606, No Iterations 29
DICPCG:  Solving for p, Initial residual = 0.018616, Final residual = 0.00017787, No Iterations 12
time step continuity errors : sum local = 1.4301e-06, global = 3.7285e-08, cumulative = 2.8914e-08
PIMPLE: iteration 2
smoothSolver:  Solving for Ux, Initial residual = 0.11861, Final residual = 8.6316e-06, No Iterations 1
smoothSolver:  Solving for Uy, Initial residual = 0.12969, Final residual = 7.3812e-06, No Iterations 1
smoothSolver:  Solving for Uz, Initial residual = 0.12972, Final residual = 7.4248e-06, No Iterations 1
DICPCG:  Solving for p, Initial residual = 0.023512, Final residual = 0.00014182, No Iterations 29
DICPCG:  Solving for p, Initial residual = 0.0026531, Final residual = 2.2011e-05, No Iterations 9
time step continuity errors : sum local = 1.4417e-07, global = -4.7716e-09, cumulative = 2.4143e-08
PIMPLE: iteration 3
smoothSolver:  Solving for Ux, Initial residual = 0.053139, Final residual = 2.5869e-09, No Iterations 2
smoothSolver:  Solving for Uy, Initial residual = 0.059593, Final residual = 2.8752e-09, No Iterations 2
smoothSolver:  Solving for Uz, Initial residual = 0.059601, Final residual = 2.8971e-09, No Iterations 2
DICPCG:  Solving for p, Initial residual = 0.015603, Final residual = 0.00010101, No Iterations 29
DICPCG:  Solving for p, Initial residual = 0.0020083, Final residual = 8.3571e-10, No Iterations 52
time step continuity errors : sum local = 6.9255e-12, global = 2.0471e-13, cumulative = 2.4143e-08
ExecutionTime = 2.58 s  ClockTime = 43 s

surfaceRegion PRESSURE_mantle write:
    none(mantle) of p = 0

surfaceRegion TRACTION_mantle write:
    none(mantle) of wallShearStress = (0 0 0)

I get past the save

Reading pointDisplacement

prev_runTime0.0000
GAMG:  Solving for cellDisplacementx, Initial residual = 0.29606, Final residual = 1.0854e-06, No Iterations 5
GAMG:  Solving for cellDisplacementy, Initial residual = 0.26679, Final residual = 1.7214e-06, No Iterations 6
GAMG:  Solving for cellDisplacementz, Initial residual = 0.27091, Final residual = 1.3537e-06, No Iterations 6
PIMPLE: iteration 1
smoothSolver:  Solving for Ux, Initial residual = 0.00030065, Final residual = 1.1863e-08, No Iterations 1
smoothSolver:  Solving for Uy, Initial residual = 0.00049238, Final residual = 1.4678e-08, No Iterations 1
smoothSolver:  Solving for Uz, Initial residual = 0.00048493, Final residual = 1.4322e-08, No Iterations 1
DICPCG:  Solving for p, Initial residual = 0.08137, Final residual = 0.00060171, No Iterations 36
DICPCG:  Solving for p, Initial residual = 0.014169, Final residual = 8.4387e-05, No Iterations 8
time step continuity errors : sum local = 4.9729e-07, global = -2.6758e-08, cumulative = -2.6148e-09
PIMPLE: iteration 2
smoothSolver:  Solving for Ux, Initial residual = 0.065797, Final residual = 2.9429e-06, No Iterations 1
smoothSolver:  Solving for Uy, Initial residual = 0.0305, Final residual = 5.4125e-07, No Iterations 1
smoothSolver:  Solving for Uz, Initial residual = 0.062153, Final residual = 1.5432e-06, No Iterations 1
DICPCG:  Solving for p, Initial residual = 0.012595, Final residual = 0.00011914, No Iterations 22
DICPCG:  Solving for p, Initial residual = 0.0018055, Final residual = 1.3747e-05, No Iterations 29
time step continuity errors : sum local = 8.0382e-08, global = -2.1226e-10, cumulative = -2.8271e-09
PIMPLE: iteration 3
smoothSolver:  Solving for Ux, Initial residual = 0.037656, Final residual = 1.0092e-09, No Iterations 2
smoothSolver:  Solving for Uy, Initial residual = 0.018688, Final residual = 1.6464e-10, No Iterations 2
smoothSolver:  Solving for Uz, Initial residual = 0.034845, Final residual = 4.5807e-10, No Iterations 2
DICPCG:  Solving for p, Initial residual = 0.013868, Final residual = 0.00013117, No Iterations 21
DICPCG:  Solving for p, Initial residual = 0.0011999, Final residual = 9.6417e-10, No Iterations 52
time step continuity errors : sum local = 7.8686e-12, global = 9.6984e-14, cumulative = -2.827e-09
ExecutionTime = 3.76 s  ClockTime = 63 s

surfaceRegion PRESSURE_mantle write:
    none(mantle) of p = 0

surfaceRegion TRACTION_mantle write:
    none(mantle) of wallShearStress = (0 0 0)

I get past the save

Reading pointDisplacement

prev_runTime0.0000
GAMG:  Solving for cellDisplacementx, Initial residual = 0.19605, Final residual = 4.3791e-07, No Iterations 6
GAMG:  Solving for cellDisplacementy, Initial residual = 0.19, Final residual = 9.2828e-07, No Iterations 6
GAMG:  Solving for cellDisplacementz, Initial residual = 0.19088, Final residual = 1.4336e-06, No Iterations 5
PIMPLE: iteration 1
smoothSolver:  Solving for Ux, Initial residual = 0.00022221, Final residual = 4.5452e-09, No Iterations 1
smoothSolver:  Solving for Uy, Initial residual = 0.00039362, Final residual = 6.6656e-09, No Iterations 1
smoothSolver:  Solving for Uz, Initial residual = 0.00034512, Final residual = 5.7954e-09, No Iterations 1
DICPCG:  Solving for p, Initial residual = 0.062258, Final residual = 0.0003695, No Iterations 39
DICPCG:  Solving for p, Initial residual = 0.022087, Final residual = 0.00019624, No Iterations 7
time step continuity errors : sum local = 6.5482e-07, global = 1.8578e-08, cumulative = 1.5751e-08
PIMPLE: iteration 2
smoothSolver:  Solving for Ux, Initial residual = 0.086236, Final residual = 1.9376e-06, No Iterations 1
smoothSolver:  Solving for Uy, Initial residual = 0.021528, Final residual = 4.9156e-07, No Iterations 1
smoothSolver:  Solving for Uz, Initial residual = 0.056918, Final residual = 1.6283e-06, No Iterations 1
DICPCG:  Solving for p, Initial residual = 0.014374, Final residual = 0.00011628, No Iterations 37
DICPCG:  Solving for p, Initial residual = 0.0022545, Final residual = 1.5566e-05, No Iterations 8
time step continuity errors : sum local = 5.9751e-08, global = 8.7566e-09, cumulative = 2.4507e-08
PIMPLE: iteration 3
smoothSolver:  Solving for Ux, Initial residual = 0.050501, Final residual = 6.8e-10, No Iterations 2
smoothSolver:  Solving for Uy, Initial residual = 0.013245, Final residual = 1.509e-10, No Iterations 2
smoothSolver:  Solving for Uz, Initial residual = 0.031509, Final residual = 4.7599e-10, No Iterations 2
DICPCG:  Solving for p, Initial residual = 0.020248, Final residual = 0.00019314, No Iterations 35
DICPCG:  Solving for p, Initial residual = 0.0017451, Final residual = 9.9451e-10, No Iterations 53
time step continuity errors : sum local = 5.5991e-12, global = -1.2433e-14, cumulative = 2.4507e-08
ExecutionTime = 4.78 s  ClockTime = 82 s

surfaceRegion PRESSURE_mantle write:
    none(mantle) of p = 0

surfaceRegion TRACTION_mantle write:
    none(mantle) of wallShearStress = (0 0 0)

I get past the save

Reading pointDisplacement

prev_runTime0.0000
GAMG:  Solving for cellDisplacementx, Initial residual = 0.21025, Final residual = 1.309e-06, No Iterations 6
GAMG:  Solving for cellDisplacementy, Initial residual = 0.36109, Final residual = 2.4337e-06, No Iterations 6
GAMG:  Solving for cellDisplacementz, Initial residual = 0.31764, Final residual = 1.5029e-06, No Iterations 6
PIMPLE: iteration 1
smoothSolver:  Solving for Ux, Initial residual = 0.00030941, Final residual = 1.2184e-08, No Iterations 1
smoothSolver:  Solving for Uy, Initial residual = 0.00048668, Final residual = 1.2964e-08, No Iterations 1
smoothSolver:  Solving for Uz, Initial residual = 0.00039351, Final residual = 1.1741e-08, No Iterations 1
DICPCG:  Solving for p, Initial residual = 0.12781, Final residual = 0.001255, No Iterations 22
DICPCG:  Solving for p, Initial residual = 0.025979, Final residual = 0.00018212, No Iterations 12
time step continuity errors : sum local = 6.649e-07, global = -1.179e-07, cumulative = -9.3396e-08
PIMPLE: iteration 2
smoothSolver:  Solving for Ux, Initial residual = 0.028461, Final residual = 1.3793e-06, No Iterations 1
smoothSolver:  Solving for Uy, Initial residual = 0.0985, Final residual = 1.5538e-06, No Iterations 1
smoothSolver:  Solving for Uz, Initial residual = 0.090975, Final residual = 2.6211e-06, No Iterations 1
DICPCG:  Solving for p, Initial residual = 0.019646, Final residual = 0.00015572, No Iterations 22
DICPCG:  Solving for p, Initial residual = 0.0028427, Final residual = 2.6809e-05, No Iterations 20
time step continuity errors : sum local = 9.6404e-08, global = -1.968e-09, cumulative = -9.5364e-08
PIMPLE: iteration 3
smoothSolver:  Solving for Ux, Initial residual = 0.01571, Final residual = 4.6885e-10, No Iterations 2
smoothSolver:  Solving for Uy, Initial residual = 0.062206, Final residual = 5.173e-10, No Iterations 2
smoothSolver:  Solving for Uz, Initial residual = 0.060323, Final residual = 9.5177e-10, No Iterations 2
DICPCG:  Solving for p, Initial residual = 0.01578, Final residual = 0.00011524, No Iterations 22
DICPCG:  Solving for p, Initial residual = 0.0017822, Final residual = 6.0631e-10, No Iterations 53
time step continuity errors : sum local = 3.0674e-12, global = -5.9728e-14, cumulative = -9.5364e-08
ExecutionTime = 5.85 s  ClockTime = 101 s

surfaceRegion PRESSURE_mantle write:
    none(mantle) of p = 0

surfaceRegion TRACTION_mantle write:
    none(mantle) of wallShearStress = (0 0 0)

I get past the save

Reading pointDisplacement

prev_runTime0.0000
GAMG:  Solving for cellDisplacementx, Initial residual = 0.10602, Final residual = 7.6739e-07, No Iterations 5
GAMG:  Solving for cellDisplacementy, Initial residual = 0.18479, Final residual = 6.3525e-07, No Iterations 6
GAMG:  Solving for cellDisplacementz, Initial residual = 0.18004, Final residual = 3.5704e-07, No Iterations 6
PIMPLE: iteration 1
smoothSolver:  Solving for Ux, Initial residual = 0.00010389, Final residual = 2.3566e-09, No Iterations 1
smoothSolver:  Solving for Uy, Initial residual = 0.00029419, Final residual = 7.165e-09, No Iterations 1
smoothSolver:  Solving for Uz, Initial residual = 0.00029, Final residual = 7.9525e-09, No Iterations 1
DICPCG:  Solving for p, Initial residual = 0.059557, Final residual = 0.00040289, No Iterations 38
DICPCG:  Solving for p, Initial residual = 0.0088217, Final residual = 4.0507e-05, No Iterations 8
time step continuity errors : sum local = 1.708e-07, global = 1.3884e-08, cumulative = -8.148e-08
PIMPLE: iteration 2
smoothSolver:  Solving for Ux, Initial residual = 0.050313, Final residual = 2.3029e-06, No Iterations 1
smoothSolver:  Solving for Uy, Initial residual = 0.036935, Final residual = 5.3165e-07, No Iterations 1
smoothSolver:  Solving for Uz, Initial residual = 0.044754, Final residual = 5.5118e-07, No Iterations 1
DICPCG:  Solving for p, Initial residual = 0.0078563, Final residual = 7.2392e-05, No Iterations 37
DICPCG:  Solving for p, Initial residual = 0.0010925, Final residual = 6.6442e-06, No Iterations 8
time step continuity errors : sum local = 2.6906e-08, global = 3.7588e-09, cumulative = -7.7721e-08
PIMPLE: iteration 3
smoothSolver:  Solving for Ux, Initial residual = 0.02802, Final residual = 7.9072e-10, No Iterations 2
smoothSolver:  Solving for Uy, Initial residual = 0.021736, Final residual = 1.4525e-10, No Iterations 2
smoothSolver:  Solving for Uz, Initial residual = 0.026552, Final residual = 1.3566e-10, No Iterations 2
DICPCG:  Solving for p, Initial residual = 0.011882, Final residual = 0.00011047, No Iterations 31
DICPCG:  Solving for p, Initial residual = 0.00094019, Final residual = 5.7309e-10, No Iterations 52
time step continuity errors : sum local = 3.2176e-12, global = -7.5467e-14, cumulative = -7.7721e-08
ExecutionTime = 6.95 s  ClockTime = 122 s

surfaceRegion PRESSURE_mantle write:
    none(mantle) of p = 0

surfaceRegion TRACTION_mantle write:
    none(mantle) of wallShearStress = (0 0 0)

I get past the save

Reading pointDisplacement

prev_runTime0.0000
GAMG:  Solving for cellDisplacementx, Initial residual = 0.13899, Final residual = 2.7071e-07, No Iterations 6
GAMG:  Solving for cellDisplacementy, Initial residual = 0.21216, Final residual = 6.7833e-07, No Iterations 6
GAMG:  Solving for cellDisplacementz, Initial residual = 0.21456, Final residual = 1.5236e-06, No Iterations 5
PIMPLE: iteration 1
smoothSolver:  Solving for Ux, Initial residual = 0.00013974, Final residual = 5.1384e-09, No Iterations 1
smoothSolver:  Solving for Uy, Initial residual = 0.00025692, Final residual = 4.1168e-09, No Iterations 1
smoothSolver:  Solving for Uz, Initial residual = 0.00024779, Final residual = 3.563e-09, No Iterations 1
DICPCG:  Solving for p, Initial residual = 0.061548, Final residual = 0.00052551, No Iterations 39
DICPCG:  Solving for p, Initial residual = 0.028066, Final residual = 0.00021974, No Iterations 7
time step continuity errors : sum local = 4.0287e-07, global = -7.6268e-09, cumulative = -8.5348e-08
PIMPLE: iteration 2
smoothSolver:  Solving for Ux, Initial residual = 0.082565, Final residual = 9.5758e-07, No Iterations 1
smoothSolver:  Solving for Uy, Initial residual = 0.028524, Final residual = 4.5181e-07, No Iterations 1
smoothSolver:  Solving for Uz, Initial residual = 0.075145, Final residual = 4.4578e-07, No Iterations 1
DICPCG:  Solving for p, Initial residual = 0.015762, Final residual = 0.00010969, No Iterations 38
DICPCG:  Solving for p, Initial residual = 0.0025106, Final residual = 2.2682e-05, No Iterations 7
time step continuity errors : sum local = 5.1397e-08, global = -2.4108e-09, cumulative = -8.7759e-08
PIMPLE: iteration 3
smoothSolver:  Solving for Ux, Initial residual = 0.052961, Final residual = 3.3273e-10, No Iterations 2
smoothSolver:  Solving for Uy, Initial residual = 0.017076, Final residual = 1.4104e-10, No Iterations 2
smoothSolver:  Solving for Uz, Initial residual = 0.041939, Final residual = 1.0892e-10, No Iterations 2
DICPCG:  Solving for p, Initial residual = 0.020657, Final residual = 0.00019811, No Iterations 36
DICPCG:  Solving for p, Initial residual = 0.0018994, Final residual = 8.1128e-10, No Iterations 53
time step continuity errors : sum local = 2.7682e-12, global = -1.7748e-15, cumulative = -8.7759e-08
ExecutionTime = 7.97 s  ClockTime = 141 s

surfaceRegion PRESSURE_mantle write:
    none(mantle) of p = 0

surfaceRegion TRACTION_mantle write:
    none(mantle) of wallShearStress = (0 0 0)

I get past the save

Reading pointDisplacement

prev_runTime0.0000
GAMG:  Solving for cellDisplacementx, Initial residual = 0.12869, Final residual = 3.181e-07, No Iterations 6
GAMG:  Solving for cellDisplacementy, Initial residual = 0.16126, Final residual = 8.7993e-07, No Iterations 6
GAMG:  Solving for cellDisplacementz, Initial residual = 0.15197, Final residual = 7.7873e-07, No Iterations 6
PIMPLE: iteration 1
smoothSolver:  Solving for Ux, Initial residual = 0.00015212, Final residual = 3.0846e-09, No Iterations 1
smoothSolver:  Solving for Uy, Initial residual = 0.00018049, Final residual = 4.3071e-09, No Iterations 1
smoothSolver:  Solving for Uz, Initial residual = 0.00018791, Final residual = 3.1671e-09, No Iterations 1
DICPCG:  Solving for p, Initial residual = 0.071684, Final residual = 0.00068642, No Iterations 38
DICPCG:  Solving for p, Initial residual = 0.016465, Final residual = 0.00014154, No Iterations 7
time step continuity errors : sum local = 2.148e-07, global = -4.674e-09, cumulative = -9.2433e-08
PIMPLE: iteration 2
smoothSolver:  Solving for Ux, Initial residual = 0.13679, Final residual = 2.7995e-06, No Iterations 1
smoothSolver:  Solving for Uy, Initial residual = 0.0341, Final residual = 5.1359e-07, No Iterations 1
smoothSolver:  Solving for Uz, Initial residual = 0.023215, Final residual = 3.2564e-07, No Iterations 1
DICPCG:  Solving for p, Initial residual = 0.017518, Final residual = 0.0001638, No Iterations 37
DICPCG:  Solving for p, Initial residual = 0.002227, Final residual = 1.7607e-05, No Iterations 9
time step continuity errors : sum local = 2.6408e-08, global = 1.6716e-10, cumulative = -9.2266e-08
PIMPLE: iteration 3
smoothSolver:  Solving for Ux, Initial residual = 0.067675, Final residual = 8.2302e-10, No Iterations 2
smoothSolver:  Solving for Uy, Initial residual = 0.020961, Final residual = 1.8668e-10, No Iterations 2
smoothSolver:  Solving for Uz, Initial residual = 0.014055, Final residual = 1.164e-10, No Iterations 2
DICPCG:  Solving for p, Initial residual = 0.028903, Final residual = 0.00021945, No Iterations 36
DICPCG:  Solving for p, Initial residual = 0.0021181, Final residual = 6.1879e-10, No Iterations 54
time step continuity errors : sum local = 1.2606e-12, global = 9.2397e-16, cumulative = -9.2266e-08
ExecutionTime = 8.9 s  ClockTime = 159 s

surfaceRegion PRESSURE_mantle write:
    none(mantle) of p = 0

surfaceRegion TRACTION_mantle write:
    none(mantle) of wallShearStress = (0 0 0)

I get past the save

Reading pointDisplacement

prev_runTime0.0000
GAMG:  Solving for cellDisplacementx, Initial residual = 0.11997, Final residual = 2.9292e-07, No Iterations 6
GAMG:  Solving for cellDisplacementy, Initial residual = 0.29218, Final residual = 8.7605e-07, No Iterations 6
GAMG:  Solving for cellDisplacementz, Initial residual = 0.29908, Final residual = 6.2355e-07, No Iterations 6
PIMPLE: iteration 1
smoothSolver:  Solving for Ux, Initial residual = 0.00022155, Final residual = 1.0762e-08, No Iterations 1
smoothSolver:  Solving for Uy, Initial residual = 0.00026593, Final residual = 1.0652e-08, No Iterations 1
smoothSolver:  Solving for Uz, Initial residual = 0.00020277, Final residual = 7.8142e-09, No Iterations 1
DICPCG:  Solving for p, Initial residual = 0.17791, Final residual = 0.0014635, No Iterations 38
DICPCG:  Solving for p, Initial residual = 0.029641, Final residual = 0.0001918, No Iterations 7
time step continuity errors : sum local = 2.5532e-07, global = 5.9069e-09, cumulative = -8.6359e-08
PIMPLE: iteration 2
smoothSolver:  Solving for Ux, Initial residual = 0.10263, Final residual = 1.4031e-06, No Iterations 1
smoothSolver:  Solving for Uy, Initial residual = 0.081239, Final residual = 1.079e-06, No Iterations 1
smoothSolver:  Solving for Uz, Initial residual = 0.068432, Final residual = 9.2222e-07, No Iterations 1
DICPCG:  Solving for p, Initial residual = 0.027191, Final residual = 0.000254, No Iterations 37
DICPCG:  Solving for p, Initial residual = 0.0037563, Final residual = 3.5767e-05, No Iterations 7
time step continuity errors : sum local = 4.2609e-08, global = -4.4217e-11, cumulative = -8.6403e-08
PIMPLE: iteration 3
smoothSolver:  Solving for Ux, Initial residual = 0.060508, Final residual = 5.6323e-10, No Iterations 2
smoothSolver:  Solving for Uy, Initial residual = 0.05302, Final residual = 4.062e-10, No Iterations 2
smoothSolver:  Solving for Uz, Initial residual = 0.044196, Final residual = 3.372e-10, No Iterations 2
DICPCG:  Solving for p, Initial residual = 0.024886, Final residual = 0.00022736, No Iterations 36
DICPCG:  Solving for p, Initial residual = 0.0023247, Final residual = 9.9115e-10, No Iterations 53
time step continuity errors : sum local = 1.6396e-12, global = -1.9361e-14, cumulative = -8.6403e-08
ExecutionTime = 9.92 s  ClockTime = 178 s

surfaceRegion PRESSURE_mantle write:
    none(mantle) of p = 0

surfaceRegion TRACTION_mantle write:
    none(mantle) of wallShearStress = (0 0 0)

I get past the save

Reading pointDisplacement

prev_runTime0.0000
GAMG:  Solving for cellDisplacementx, Initial residual = 0.090119, Final residual = 7.1202e-07, No Iterations 6
GAMG:  Solving for cellDisplacementy, Initial residual = 0.18218, Final residual = 9.1277e-07, No Iterations 7
GAMG:  Solving for cellDisplacementz, Initial residual = 0.19049, Final residual = 1.7198e-06, No Iterations 6
PIMPLE: iteration 1
smoothSolver:  Solving for Ux, Initial residual = 0.00013889, Final residual = 3.3201e-09, No Iterations 1
smoothSolver:  Solving for Uy, Initial residual = 0.00020919, Final residual = 7.9949e-09, No Iterations 1
smoothSolver:  Solving for Uz, Initial residual = 0.00016349, Final residual = 5.5126e-09, No Iterations 1
DICPCG:  Solving for p, Initial residual = 0.10399, Final residual = 0.00083625, No Iterations 38
DICPCG:  Solving for p, Initial residual = 0.017051, Final residual = 0.00013228, No Iterations 7
time step continuity errors : sum local = 1.5939e-07, global = -6.1924e-09, cumulative = -9.2595e-08
PIMPLE: iteration 2
smoothSolver:  Solving for Ux, Initial residual = 0.0829, Final residual = 2.5696e-06, No Iterations 1
smoothSolver:  Solving for Uy, Initial residual = 0.033934, Final residual = 6.9236e-07, No Iterations 1
smoothSolver:  Solving for Uz, Initial residual = 0.048872, Final residual = 7.4699e-07, No Iterations 1
DICPCG:  Solving for p, Initial residual = 0.016069, Final residual = 0.00015513, No Iterations 37
DICPCG:  Solving for p, Initial residual = 0.00214, Final residual = 1.7639e-05, No Iterations 8
time step continuity errors : sum local = 2.0829e-08, global = -1.1555e-09, cumulative = -9.3751e-08
PIMPLE: iteration 3
smoothSolver:  Solving for Ux, Initial residual = 0.042494, Final residual = 7.6952e-10, No Iterations 2
smoothSolver:  Solving for Uy, Initial residual = 0.020109, Final residual = 2.2545e-10, No Iterations 2
smoothSolver:  Solving for Uz, Initial residual = 0.0292, Final residual = 2.4694e-10, No Iterations 2
DICPCG:  Solving for p, Initial residual = 0.023413, Final residual = 0.00021301, No Iterations 36
DICPCG:  Solving for p, Initial residual = 0.0019472, Final residual = 6.0307e-10, No Iterations 54
time step continuity errors : sum local = 9.8063e-13, global = 1.5217e-16, cumulative = -9.3751e-08
ExecutionTime = 10.97 s  ClockTime = 197 s

surfaceRegion PRESSURE_mantle write:
    none(mantle) of p = 0

surfaceRegion TRACTION_mantle write:
    none(mantle) of wallShearStress = (0 0 0)

I get past the save

Reading pointDisplacement

prev_runTime0.0000
GAMG:  Solving for cellDisplacementx, Initial residual = 0.064048, Final residual = 5.1441e-07, No Iterations 6
GAMG:  Solving for cellDisplacementy, Initial residual = 0.13822, Final residual = 5.0761e-07, No Iterations 7
GAMG:  Solving for cellDisplacementz, Initial residual = 0.14059, Final residual = 1.0936e-06, No Iterations 6
PIMPLE: iteration 1
smoothSolver:  Solving for Ux, Initial residual = 0.00011198, Final residual = 2.7299e-09, No Iterations 1
smoothSolver:  Solving for Uy, Initial residual = 0.00014325, Final residual = 5.821e-09, No Iterations 1
smoothSolver:  Solving for Uz, Initial residual = 0.00012707, Final residual = 4.0333e-09, No Iterations 1
DICPCG:  Solving for p, Initial residual = 0.083121, Final residual = 0.00072743, No Iterations 37
DICPCG:  Solving for p, Initial residual = 0.01101, Final residual = 0.00010278, No Iterations 9
time step continuity errors : sum local = 1.33e-07, global = 5.1727e-09, cumulative = -8.8578e-08
PIMPLE: iteration 2
smoothSolver:  Solving for Ux, Initial residual = 0.076341, Final residual = 1.3327e-06, No Iterations 1
smoothSolver:  Solving for Uy, Initial residual = 0.022296, Final residual = 4.8012e-07, No Iterations 1
smoothSolver:  Solving for Uz, Initial residual = 0.035063, Final residual = 6.7426e-07, No Iterations 1
DICPCG:  Solving for p, Initial residual = 0.012328, Final residual = 0.00010849, No Iterations 35
DICPCG:  Solving for p, Initial residual = 0.0014761, Final residual = 1.3498e-05, No Iterations 10
time step continuity errors : sum local = 1.6529e-08, global = 4.0307e-10, cumulative = -8.8175e-08
PIMPLE: iteration 3
smoothSolver:  Solving for Ux, Initial residual = 0.041506, Final residual = 3.7045e-10, No Iterations 2
smoothSolver:  Solving for Uy, Initial residual = 0.013643, Final residual = 1.7334e-10, No Iterations 2
smoothSolver:  Solving for Uz, Initial residual = 0.020645, Final residual = 2.25e-10, No Iterations 2
DICPCG:  Solving for p, Initial residual = 0.020806, Final residual = 0.00013798, No Iterations 34
DICPCG:  Solving for p, Initial residual = 0.0015391, Final residual = 7.9831e-10, No Iterations 53
time step continuity errors : sum local = 1.3249e-12, global = 1.9336e-14, cumulative = -8.8175e-08
ExecutionTime = 12.1 s  ClockTime = 216 s

surfaceRegion PRESSURE_mantle write:
    none(mantle) of p = 0

surfaceRegion TRACTION_mantle write:
    none(mantle) of wallShearStress = (0 0 0)

I get past the save

Reading pointDisplacement

prev_runTime0.0000
GAMG:  Solving for cellDisplacementx, Initial residual = 0.061258, Final residual = 2.05e-07, No Iterations 7
GAMG:  Solving for cellDisplacementy, Initial residual = 0.10674, Final residual = 3.5377e-07, No Iterations 7
GAMG:  Solving for cellDisplacementz, Initial residual = 0.10141, Final residual = 8.454e-07, No Iterations 6
PIMPLE: iteration 1
smoothSolver:  Solving for Ux, Initial residual = 0.00010106, Final residual = 3.1208e-09, No Iterations 1
smoothSolver:  Solving for Uy, Initial residual = 0.00011515, Final residual = 3.9428e-09, No Iterations 1
smoothSolver:  Solving for Uz, Initial residual = 0.00010457, Final residual = 3.4756e-09, No Iterations 1
DICPCG:  Solving for p, Initial residual = 0.062108, Final residual = 0.00049046, No Iterations 35
DICPCG:  Solving for p, Initial residual = 0.0068241, Final residual = 6.4911e-05, No Iterations 10
time step continuity errors : sum local = 8.7218e-08, global = -2.3893e-10, cumulative = -8.8414e-08
PIMPLE: iteration 2
smoothSolver:  Solving for Ux, Initial residual = 0.033914, Final residual = 9.2359e-07, No Iterations 1
smoothSolver:  Solving for Uy, Initial residual = 0.025746, Final residual = 3.1884e-07, No Iterations 1
smoothSolver:  Solving for Uz, Initial residual = 0.019198, Final residual = 2.3356e-07, No Iterations 1
DICPCG:  Solving for p, Initial residual = 0.0085491, Final residual = 6.2088e-05, No Iterations 34
DICPCG:  Solving for p, Initial residual = 0.0008829, Final residual = 8.5711e-06, No Iterations 8
time step continuity errors : sum local = 1.1141e-08, global = 2.8385e-10, cumulative = -8.813e-08
PIMPLE: iteration 3
smoothSolver:  Solving for Ux, Initial residual = 0.018691, Final residual = 3.0575e-10, No Iterations 2
smoothSolver:  Solving for Uy, Initial residual = 0.01538, Final residual = 9.6742e-11, No Iterations 2
smoothSolver:  Solving for Uz, Initial residual = 0.011458, Final residual = 7.5232e-11, No Iterations 2
DICPCG:  Solving for p, Initial residual = 0.018119, Final residual = 0.00016006, No Iterations 33
DICPCG:  Solving for p, Initial residual = 0.0012736, Final residual = 7.2058e-10, No Iterations 53
time step continuity errors : sum local = 1.289e-12, global = 2.9821e-15, cumulative = -8.813e-08
ExecutionTime = 13.12 s  ClockTime = 235 s

surfaceRegion PRESSURE_mantle write:
    none(mantle) of p = 0

surfaceRegion TRACTION_mantle write:
    none(mantle) of wallShearStress = (0 0 0)

I get past the save

Reading pointDisplacement

prev_runTime0.0000
GAMG:  Solving for cellDisplacementx, Initial residual = 0.065212, Final residual = 2.2087e-07, No Iterations 7
GAMG:  Solving for cellDisplacementy, Initial residual = 0.13602, Final residual = 3.9698e-07, No Iterations 7
GAMG:  Solving for cellDisplacementz, Initial residual = 0.13664, Final residual = 4.6829e-07, No Iterations 7
PIMPLE: iteration 1
smoothSolver:  Solving for Ux, Initial residual = 6.2611e-05, Final residual = 2.6863e-09, No Iterations 1
smoothSolver:  Solving for Uy, Initial residual = 0.00015282, Final residual = 7.1002e-09, No Iterations 1
smoothSolver:  Solving for Uz, Initial residual = 0.00011857, Final residual = 5.345e-09, No Iterations 1
DICPCG:  Solving for p, Initial residual = 0.063344, Final residual = 0.00042691, No Iterations 35
DICPCG:  Solving for p, Initial residual = 0.010436, Final residual = 9.5469e-05, No Iterations 7
time step continuity errors : sum local = 1.1142e-07, global = -6.0492e-09, cumulative = -9.4179e-08
PIMPLE: iteration 2
smoothSolver:  Solving for Ux, Initial residual = 0.021346, Final residual = 2.6144e-07, No Iterations 1
smoothSolver:  Solving for Uy, Initial residual = 0.037004, Final residual = 6.4136e-07, No Iterations 1
smoothSolver:  Solving for Uz, Initial residual = 0.033277, Final residual = 7.0265e-07, No Iterations 1
DICPCG:  Solving for p, Initial residual = 0.0099016, Final residual = 5.1031e-05, No Iterations 35
DICPCG:  Solving for p, Initial residual = 0.0011822, Final residual = 1.0531e-05, No Iterations 7
time step continuity errors : sum local = 1.2399e-08, global = -6.3811e-10, cumulative = -9.4817e-08
PIMPLE: iteration 3
smoothSolver:  Solving for Ux, Initial residual = 0.012119, Final residual = 6.6045e-11, No Iterations 2
smoothSolver:  Solving for Uy, Initial residual = 0.021679, Final residual = 1.9176e-10, No Iterations 2
smoothSolver:  Solving for Uz, Initial residual = 0.020117, Final residual = 2.2617e-10, No Iterations 2
DICPCG:  Solving for p, Initial residual = 0.018726, Final residual = 0.00014014, No Iterations 32
DICPCG:  Solving for p, Initial residual = 0.0013732, Final residual = 8.6656e-10, No Iterations 53
time step continuity errors : sum local = 1.4303e-12, global = 2.0371e-14, cumulative = -9.4817e-08
ExecutionTime = 14.17 s  ClockTime = 254 s

surfaceRegion PRESSURE_mantle write:
    none(mantle) of p = 0

surfaceRegion TRACTION_mantle write:
    none(mantle) of wallShearStress = (0 0 0)

I get past the save

Reading pointDisplacement

prev_runTime0.0000
GAMG:  Solving for cellDisplacementx, Initial residual = 0.055338, Final residual = 3.508e-07, No Iterations 6
GAMG:  Solving for cellDisplacementy, Initial residual = 0.089828, Final residual = 3.0237e-07, No Iterations 7
GAMG:  Solving for cellDisplacementz, Initial residual = 0.091613, Final residual = 8.0302e-07, No Iterations 6
PIMPLE: iteration 1
smoothSolver:  Solving for Ux, Initial residual = 4.0975e-05, Final residual = 1.3597e-09, No Iterations 1
smoothSolver:  Solving for Uy, Initial residual = 0.00012043, Final residual = 4.547e-09, No Iterations 1
smoothSolver:  Solving for Uz, Initial residual = 9.7476e-05, Final residual = 3.4607e-09, No Iterations 1
DICPCG:  Solving for p, Initial residual = 0.04927, Final residual = 0.00043904, No Iterations 35
DICPCG:  Solving for p, Initial residual = 0.0078986, Final residual = 6.5547e-05, No Iterations 8
time step continuity errors : sum local = 7.1997e-08, global = 1.6504e-09, cumulative = -9.3167e-08
PIMPLE: iteration 2
smoothSolver:  Solving for Ux, Initial residual = 0.020614, Final residual = 2.738e-07, No Iterations 1
smoothSolver:  Solving for Uy, Initial residual = 0.02247, Final residual = 4.1247e-07, No Iterations 1
smoothSolver:  Solving for Uz, Initial residual = 0.0284, Final residual = 4.2933e-07, No Iterations 1
DICPCG:  Solving for p, Initial residual = 0.0081819, Final residual = 5.193e-05, No Iterations 35
DICPCG:  Solving for p, Initial residual = 0.00090812, Final residual = 7.2422e-06, No Iterations 7
time step continuity errors : sum local = 7.892e-09, global = 2.9859e-10, cumulative = -9.2868e-08
PIMPLE: iteration 3
smoothSolver:  Solving for Ux, Initial residual = 0.011805, Final residual = 8.7868e-11, No Iterations 2
smoothSolver:  Solving for Uy, Initial residual = 0.013177, Final residual = 1.3392e-10, No Iterations 2
smoothSolver:  Solving for Uz, Initial residual = 0.016739, Final residual = 1.2552e-10, No Iterations 2
DICPCG:  Solving for p, Initial residual = 0.019338, Final residual = 0.00017712, No Iterations 32
DICPCG:  Solving for p, Initial residual = 0.0013745, Final residual = 5.315e-10, No Iterations 54
time step continuity errors : sum local = 8.0463e-13, global = -4.4282e-16, cumulative = -9.2868e-08
ExecutionTime = 15.17 s  ClockTime = 273 s

surfaceRegion PRESSURE_mantle write:
    none(mantle) of p = 0

surfaceRegion TRACTION_mantle write:
    none(mantle) of wallShearStress = (0 0 0)

I get past the save

Reading pointDisplacement

prev_runTime0.0000
GAMG:  Solving for cellDisplacementx, Initial residual = 0.033201, Final residual = 1.8277e-07, No Iterations 6
GAMG:  Solving for cellDisplacementy, Initial residual = 0.057987, Final residual = 1.7559e-07, No Iterations 7
GAMG:  Solving for cellDisplacementz, Initial residual = 0.052905, Final residual = 4.8993e-07, No Iterations 6
PIMPLE: iteration 1
smoothSolver:  Solving for Ux, Initial residual = 3.8187e-05, Final residual = 1.5138e-09, No Iterations 1
smoothSolver:  Solving for Uy, Initial residual = 8.9936e-05, Final residual = 4.0885e-09, No Iterations 1
smoothSolver:  Solving for Uz, Initial residual = 8.0165e-05, Final residual = 3.3409e-09, No Iterations 1
DICPCG:  Solving for p, Initial residual = 0.039795, Final residual = 0.00038393, No Iterations 35
DICPCG:  Solving for p, Initial residual = 0.0049184, Final residual = 4.121e-05, No Iterations 8
time step continuity errors : sum local = 4.4379e-08, global = 2.5942e-09, cumulative = -9.0274e-08
PIMPLE: iteration 2
smoothSolver:  Solving for Ux, Initial residual = 0.012799, Final residual = 1.37e-07, No Iterations 1
smoothSolver:  Solving for Uy, Initial residual = 0.020159, Final residual = 4.9423e-07, No Iterations 1
smoothSolver:  Solving for Uz, Initial residual = 0.012732, Final residual = 4.0926e-07, No Iterations 1
DICPCG:  Solving for p, Initial residual = 0.0062526, Final residual = 6.1062e-05, No Iterations 34
DICPCG:  Solving for p, Initial residual = 0.00060769, Final residual = 5.3867e-06, No Iterations 11
time step continuity errors : sum local = 5.7769e-09, global = -6.256e-11, cumulative = -9.0337e-08
PIMPLE: iteration 3
smoothSolver:  Solving for Ux, Initial residual = 0.0073883, Final residual = 4.2986e-11, No Iterations 2
smoothSolver:  Solving for Uy, Initial residual = 0.011933, Final residual = 1.7371e-10, No Iterations 2
smoothSolver:  Solving for Uz, Initial residual = 0.0075852, Final residual = 1.4709e-10, No Iterations 2
DICPCG:  Solving for p, Initial residual = 0.018391, Final residual = 0.00016724, No Iterations 28
DICPCG:  Solving for p, Initial residual = 0.0011967, Final residual = 6.2311e-10, No Iterations 53
time step continuity errors : sum local = 9.3017e-13, global = 5.8045e-15, cumulative = -9.0337e-08
ExecutionTime = 16.21 s  ClockTime = 292 s

surfaceRegion PRESSURE_mantle write:
    none(mantle) of p = 0

surfaceRegion TRACTION_mantle write:
    none(mantle) of wallShearStress = (0 0 0)

I get past the save

Reading pointDisplacement

prev_runTime0.0000
GAMG:  Solving for cellDisplacementx, Initial residual = 0.031069, Final residual = 1.2782e-07, No Iterations 7
GAMG:  Solving for cellDisplacementy, Initial residual = 0.050896, Final residual = 4.3918e-07, No Iterations 6
GAMG:  Solving for cellDisplacementz, Initial residual = 0.046465, Final residual = 4.5969e-07, No Iterations 6
PIMPLE: iteration 1
smoothSolver:  Solving for Ux, Initial residual = 3.3523e-05, Final residual = 1.8638e-09, No Iterations 1
smoothSolver:  Solving for Uy, Initial residual = 8.8538e-05, Final residual = 3.9079e-09, No Iterations 1
smoothSolver:  Solving for Uz, Initial residual = 6.8913e-05, Final residual = 3.0269e-09, No Iterations 1
DICPCG:  Solving for p, Initial residual = 0.035027, Final residual = 0.00032123, No Iterations 25
DICPCG:  Solving for p, Initial residual = 0.0044058, Final residual = 3.9504e-05, No Iterations 30
time step continuity errors : sum local = 4.184e-08, global = 6.4211e-10, cumulative = -8.9695e-08
PIMPLE: iteration 2
smoothSolver:  Solving for Ux, Initial residual = 0.0060717, Final residual = 7.5263e-08, No Iterations 1
smoothSolver:  Solving for Uy, Initial residual = 0.018776, Final residual = 4.0542e-07, No Iterations 1
smoothSolver:  Solving for Uz, Initial residual = 0.011549, Final residual = 3.3578e-07, No Iterations 1
DICPCG:  Solving for p, Initial residual = 0.0056547, Final residual = 4.6787e-05, No Iterations 21
DICPCG:  Solving for p, Initial residual = 0.00054044, Final residual = 4.743e-06, No Iterations 25
time step continuity errors : sum local = 5.0088e-09, global = -2.0698e-10, cumulative = -8.9902e-08
PIMPLE: iteration 3
smoothSolver:  Solving for Ux, Initial residual = 0.003545, Final residual = 7.1116e-08, No Iterations 1
smoothSolver:  Solving for Uy, Initial residual = 0.01112, Final residual = 1.3754e-10, No Iterations 2
smoothSolver:  Solving for Uz, Initial residual = 0.0069104, Final residual = 1.2374e-10, No Iterations 2
DICPCG:  Solving for p, Initial residual = 0.017909, Final residual = 0.00017102, No Iterations 11
DICPCG:  Solving for p, Initial residual = 0.0012075, Final residual = 9.1232e-10, No Iterations 53
time step continuity errors : sum local = 1.3427e-12, global = -5.8155e-15, cumulative = -8.9902e-08
ExecutionTime = 17.25 s  ClockTime = 311 s

surfaceRegion PRESSURE_mantle write:
    none(mantle) of p = 0

surfaceRegion TRACTION_mantle write:
    none(mantle) of wallShearStress = (0 0 0)

I get past the save

Reading pointDisplacement

prev_runTime0.0000
GAMG:  Solving for cellDisplacementx, Initial residual = 0.021057, Final residual = 1.0231e-07, No Iterations 7
GAMG:  Solving for cellDisplacementy, Initial residual = 0.03918, Final residual = 3.7788e-07, No Iterations 6
GAMG:  Solving for cellDisplacementz, Initial residual = 0.0367, Final residual = 3.6477e-07, No Iterations 6
PIMPLE: iteration 1
smoothSolver:  Solving for Ux, Initial residual = 2.6086e-05, Final residual = 1.631e-09, No Iterations 1
smoothSolver:  Solving for Uy, Initial residual = 8.7742e-05, Final residual = 3.9728e-09, No Iterations 1
smoothSolver:  Solving for Uz, Initial residual = 6.4922e-05, Final residual = 3.1355e-09, No Iterations 1
DICPCG:  Solving for p, Initial residual = 0.030041, Final residual = 0.0002083, No Iterations 35
DICPCG:  Solving for p, Initial residual = 0.003594, Final residual = 2.5964e-05, No Iterations 8
time step continuity errors : sum local = 2.7094e-08, global = -5.1182e-11, cumulative = -8.9953e-08
PIMPLE: iteration 2
smoothSolver:  Solving for Ux, Initial residual = 0.0091802, Final residual = 7.1039e-08, No Iterations 1
smoothSolver:  Solving for Uy, Initial residual = 0.015407, Final residual = 4.033e-07, No Iterations 1
smoothSolver:  Solving for Uz, Initial residual = 0.0091582, Final residual = 2.8389e-07, No Iterations 1
DICPCG:  Solving for p, Initial residual = 0.005012, Final residual = 3.742e-05, No Iterations 34
DICPCG:  Solving for p, Initial residual = 0.00046856, Final residual = 3.2357e-06, No Iterations 11
time step continuity errors : sum local = 3.3674e-09, global = -1.9517e-11, cumulative = -8.9972e-08
PIMPLE: iteration 3
smoothSolver:  Solving for Ux, Initial residual = 0.0051626, Final residual = 6.8653e-08, No Iterations 1
smoothSolver:  Solving for Uy, Initial residual = 0.0092688, Final residual = 1.451e-10, No Iterations 2
smoothSolver:  Solving for Uz, Initial residual = 0.0056002, Final residual = 1.0821e-10, No Iterations 2
DICPCG:  Solving for p, Initial residual = 0.017541, Final residual = 0.00017368, No Iterations 26
DICPCG:  Solving for p, Initial residual = 0.0011736, Final residual = 7.6153e-10, No Iterations 53
time step continuity errors : sum local = 1.1057e-12, global = 6.9543e-15, cumulative = -8.9972e-08
ExecutionTime = 18.26 s  ClockTime = 331 s

surfaceRegion PRESSURE_mantle write:
    none(mantle) of p = 0

surfaceRegion TRACTION_mantle write:
    none(mantle) of wallShearStress = (0 0 0)

I get past the save

Reading pointDisplacement

prev_runTime0.0000
GAMG:  Solving for cellDisplacementx, Initial residual = 0.013457, Final residual = 5.9968e-08, No Iterations 7
GAMG:  Solving for cellDisplacementy, Initial residual = 0.023639, Final residual = 1.3027e-07, No Iterations 7
GAMG:  Solving for cellDisplacementz, Initial residual = 0.021733, Final residual = 1.8282e-07, No Iterations 7
PIMPLE: iteration 1
smoothSolver:  Solving for Ux, Initial residual = 2.7306e-05, Final residual = 1.3376e-09, No Iterations 1
smoothSolver:  Solving for Uy, Initial residual = 7.8814e-05, Final residual = 4.3153e-09, No Iterations 1
smoothSolver:  Solving for Uz, Initial residual = 5.6683e-05, Final residual = 3.1887e-09, No Iterations 1
DICPCG:  Solving for p, Initial residual = 0.026928, Final residual = 0.00025273, No Iterations 33
DICPCG:  Solving for p, Initial residual = 0.0029066, Final residual = 2.6908e-05, No Iterations 11
time step continuity errors : sum local = 2.8136e-08, global = 3.5816e-09, cumulative = -8.6391e-08
PIMPLE: iteration 2
smoothSolver:  Solving for Ux, Initial residual = 0.003977, Final residual = 1.1295e-07, No Iterations 1
smoothSolver:  Solving for Uy, Initial residual = 0.013323, Final residual = 3.8285e-07, No Iterations 1
smoothSolver:  Solving for Uz, Initial residual = 0.0068017, Final residual = 2.7448e-07, No Iterations 1
DICPCG:  Solving for p, Initial residual = 0.0047025, Final residual = 3.7085e-05, No Iterations 28
DICPCG:  Solving for p, Initial residual = 0.00038627, Final residual = 3.073e-06, No Iterations 16
time step continuity errors : sum local = 3.2008e-09, global = 6.7032e-10, cumulative = -8.572e-08
PIMPLE: iteration 3
smoothSolver:  Solving for Ux, Initial residual = 0.0023574, Final residual = 4.2418e-11, No Iterations 2
smoothSolver:  Solving for Uy, Initial residual = 0.0079769, Final residual = 1.3755e-10, No Iterations 2
smoothSolver:  Solving for Uz, Initial residual = 0.0042784, Final residual = 1.0461e-10, No Iterations 2
DICPCG:  Solving for p, Initial residual = 0.017686, Final residual = 0.00015597, No Iterations 9
DICPCG:  Solving for p, Initial residual = 0.0011632, Final residual = 9.9468e-10, No Iterations 53
time step continuity errors : sum local = 1.4437e-12, global = 1.4192e-14, cumulative = -8.572e-08
ExecutionTime = 19.33 s  ClockTime = 350 s

surfaceRegion PRESSURE_mantle write:
    none(mantle) of p = 0

surfaceRegion TRACTION_mantle write:
    none(mantle) of wallShearStress = (0 0 0)

I get past the save

Reading pointDisplacement

prev_runTime0.0000
GAMG:  Solving for cellDisplacementx, Initial residual = 0.0075333, Final residual = 6.8366e-08, No Iterations 5
GAMG:  Solving for cellDisplacementy, Initial residual = 0.016212, Final residual = 3.016e-08, No Iterations 6
GAMG:  Solving for cellDisplacementz, Initial residual = 0.01519, Final residual = 2.5492e-08, No Iterations 6
PIMPLE: iteration 1
smoothSolver:  Solving for Ux, Initial residual = 2.3518e-05, Final residual = 1.4003e-09, No Iterations 1
smoothSolver:  Solving for Uy, Initial residual = 7.4751e-05, Final residual = 4.4733e-09, No Iterations 1
smoothSolver:  Solving for Uz, Initial residual = 5.4931e-05, Final residual = 3.364e-09, No Iterations 1
DICPCG:  Solving for p, Initial residual = 0.025436, Final residual = 0.00024276, No Iterations 17
DICPCG:  Solving for p, Initial residual = 0.0025414, Final residual = 2.3626e-05, No Iterations 26
time step continuity errors : sum local = 2.4717e-08, global = 6.8385e-10, cumulative = -8.5036e-08
PIMPLE: iteration 2
smoothSolver:  Solving for Ux, Initial residual = 0.0027267, Final residual = 1.1033e-07, No Iterations 1
smoothSolver:  Solving for Uy, Initial residual = 0.0097469, Final residual = 3.2937e-07, No Iterations 1
smoothSolver:  Solving for Uz, Initial residual = 0.0077263, Final residual = 2.4846e-07, No Iterations 1
DICPCG:  Solving for p, Initial residual = 0.004487, Final residual = 3.3791e-05, No Iterations 15
DICPCG:  Solving for p, Initial residual = 0.00033938, Final residual = 2.5974e-06, No Iterations 34
time step continuity errors : sum local = 2.7062e-09, global = 1.3806e-10, cumulative = -8.4898e-08
PIMPLE: iteration 3
smoothSolver:  Solving for Ux, Initial residual = 0.0016623, Final residual = 9.9448e-08, No Iterations 1
smoothSolver:  Solving for Uy, Initial residual = 0.0059918, Final residual = 1.2121e-10, No Iterations 2
smoothSolver:  Solving for Uz, Initial residual = 0.0047381, Final residual = 9.1999e-11, No Iterations 2
DICPCG:  Solving for p, Initial residual = 0.017709, Final residual = 0.00017205, No Iterations 8
DICPCG:  Solving for p, Initial residual = 0.0011628, Final residual = 7.9631e-10, No Iterations 53
time step continuity errors : sum local = 1.1561e-12, global = -1.2909e-15, cumulative = -8.4898e-08
ExecutionTime = 20.39 s  ClockTime = 369 s

surfaceRegion PRESSURE_mantle write:
    none(mantle) of p = 0

surfaceRegion TRACTION_mantle write:
    none(mantle) of wallShearStress = (0 0 0)

I get past the save

Courant Number mean: 0.00062778 max: 0.0064156
0.0001

Time = 0.0002

Reading pointDisplacement

prev_runTime0.0001
GAMG:  Solving for cellDisplacementx, Initial residual = 0.33022, Final residual = 8.3309e-07, No Iterations 6
GAMG:  Solving for cellDisplacementy, Initial residual = 0.33185, Final residual = 1.1057e-06, No Iterations 6
GAMG:  Solving for cellDisplacementz, Initial residual = 0.31719, Final residual = 7.5785e-07, No Iterations 6
PIMPLE: iteration 1
smoothSolver:  Solving for Ux, Initial residual = 0.23175, Final residual = 6.3135e-06, No Iterations 1
smoothSolver:  Solving for Uy, Initial residual = 0.26083, Final residual = 1.589e-05, No Iterations 1
smoothSolver:  Solving for Uz, Initial residual = 0.22629, Final residual = 1.4003e-05, No Iterations 1
DICPCG:  Solving for p, Initial residual = 0.16271, Final residual = 0.0011177, No Iterations 40
DICPCG:  Solving for p, Initial residual = 0.023984, Final residual = 0.00014535, No Iterations 8
time step continuity errors : sum local = 1.1568e-07, global = 5.2055e-09, cumulative = -7.9693e-08
PIMPLE: iteration 2
smoothSolver:  Solving for Ux, Initial residual = 0.047015, Final residual = 9.8999e-07, No Iterations 1
smoothSolver:  Solving for Uy, Initial residual = 0.030503, Final residual = 1.9241e-06, No Iterations 1
smoothSolver:  Solving for Uz, Initial residual = 0.024465, Final residual = 1.5721e-06, No Iterations 1
DICPCG:  Solving for p, Initial residual = 0.073387, Final residual = 0.0005017, No Iterations 40
DICPCG:  Solving for p, Initial residual = 0.010145, Final residual = 6.0806e-05, No Iterations 8
time step continuity errors : sum local = 4.6562e-08, global = 2.1482e-09, cumulative = -7.7545e-08
PIMPLE: iteration 3
smoothSolver:  Solving for Ux, Initial residual = 0.041122, Final residual = 4.4852e-10, No Iterations 2
smoothSolver:  Solving for Uy, Initial residual = 0.01891, Final residual = 7.2728e-10, No Iterations 2
smoothSolver:  Solving for Uz, Initial residual = 0.01666, Final residual = 5.9795e-10, No Iterations 2
DICPCG:  Solving for p, Initial residual = 0.028824, Final residual = 0.00018649, No Iterations 38
DICPCG:  Solving for p, Initial residual = 0.0021813, Final residual = 8.4341e-10, No Iterations 54
time step continuity errors : sum local = 9.0332e-13, global = 7.6148e-15, cumulative = -7.7545e-08
ExecutionTime = 21.55 s  ClockTime = 387 s

surfaceRegion PRESSURE_mantle write:
    none(mantle) of p = 0

surfaceRegion TRACTION_mantle write:
    none(mantle) of wallShearStress = (0 0 0)

I get past the save

Reading pointDisplacement

prev_runTime0.0001
GAMG:  Solving for cellDisplacementx, Initial residual = 0.34788, Final residual = 3.0512e-06, No Iterations 7
GAMG:  Solving for cellDisplacementy, Initial residual = 0.19545, Final residual = 1.0788e-06, No Iterations 7
GAMG:  Solving for cellDisplacementz, Initial residual = 0.18693, Final residual = 8.4902e-07, No Iterations 7
PIMPLE: iteration 1
smoothSolver:  Solving for Ux, Initial residual = 0.00038211, Final residual = 3.0224e-08, No Iterations 1
smoothSolver:  Solving for Uy, Initial residual = 0.0011728, Final residual = 9.5069e-08, No Iterations 1
smoothSolver:  Solving for Uz, Initial residual = 0.00086987, Final residual = 7.0874e-08, No Iterations 1
DICPCG:  Solving for p, Initial residual = 0.22902, Final residual = 0.0014478, No Iterations 40
DICPCG:  Solving for p, Initial residual = 0.022618, Final residual = 0.00012803, No Iterations 8
time step continuity errors : sum local = 1.7145e-07, global = -1.0867e-08, cumulative = -8.8412e-08
PIMPLE: iteration 2
smoothSolver:  Solving for Ux, Initial residual = 0.058845, Final residual = 1.8045e-06, No Iterations 1
smoothSolver:  Solving for Uy, Initial residual = 0.059592, Final residual = 4.0933e-06, No Iterations 1
smoothSolver:  Solving for Uz, Initial residual = 0.049961, Final residual = 3.552e-06, No Iterations 1
DICPCG:  Solving for p, Initial residual = 0.03293, Final residual = 0.00021074, No Iterations 39
DICPCG:  Solving for p, Initial residual = 0.0033606, Final residual = 3.1196e-05, No Iterations 7
time step continuity errors : sum local = 3.4616e-08, global = -4.8223e-10, cumulative = -8.8894e-08
PIMPLE: iteration 3
smoothSolver:  Solving for Ux, Initial residual = 0.029551, Final residual = 5.3285e-10, No Iterations 2
smoothSolver:  Solving for Uy, Initial residual = 0.031659, Final residual = 1.3894e-09, No Iterations 2
smoothSolver:  Solving for Uz, Initial residual = 0.026175, Final residual = 1.2019e-09, No Iterations 2
DICPCG:  Solving for p, Initial residual = 0.034627, Final residual = 0.00031204, No Iterations 38
DICPCG:  Solving for p, Initial residual = 0.002997, Final residual = 7.257e-10, No Iterations 55
time step continuity errors : sum local = 1.0751e-12, global = 1.7351e-14, cumulative = -8.8894e-08
ExecutionTime = 22.62 s  ClockTime = 407 s

surfaceRegion PRESSURE_mantle write:
    none(mantle) of p = 0

surfaceRegion TRACTION_mantle write:
    none(mantle) of wallShearStress = (0 0 0)

I get past the save

Reading pointDisplacement

prev_runTime0.0001
GAMG:  Solving for cellDisplacementx, Initial residual = 0.019064, Final residual = 1.6282e-07, No Iterations 7
GAMG:  Solving for cellDisplacementy, Initial residual = 0.022428, Final residual = 8.4936e-08, No Iterations 7
GAMG:  Solving for cellDisplacementz, Initial residual = 0.023187, Final residual = 1.0601e-07, No Iterations 7
PIMPLE: iteration 1
smoothSolver:  Solving for Ux, Initial residual = 0.00011203, Final residual = 5.5865e-09, No Iterations 1
smoothSolver:  Solving for Uy, Initial residual = 0.00013143, Final residual = 1.1616e-08, No Iterations 1
smoothSolver:  Solving for Uz, Initial residual = 0.00010923, Final residual = 8.6997e-09, No Iterations 1
DICPCG:  Solving for p, Initial residual = 0.050091, Final residual = 0.00038191, No Iterations 27
DICPCG:  Solving for p, Initial residual = 0.0045376, Final residual = 4.0599e-05, No Iterations 17
time step continuity errors : sum local = 4.4374e-08, global = 1.8127e-09, cumulative = -8.7081e-08
PIMPLE: iteration 2
smoothSolver:  Solving for Ux, Initial residual = 0.0068597, Final residual = 1.1698e-07, No Iterations 1
smoothSolver:  Solving for Uy, Initial residual = 0.0075372, Final residual = 5.8719e-07, No Iterations 1
smoothSolver:  Solving for Uz, Initial residual = 0.0081425, Final residual = 3.8215e-07, No Iterations 1
DICPCG:  Solving for p, Initial residual = 0.0083492, Final residual = 6.6354e-05, No Iterations 26
DICPCG:  Solving for p, Initial residual = 0.0006256, Final residual = 5.6654e-06, No Iterations 15
time step continuity errors : sum local = 6.0853e-09, global = 4.3419e-10, cumulative = -8.6647e-08
PIMPLE: iteration 3
smoothSolver:  Solving for Ux, Initial residual = 0.0039061, Final residual = 5.3535e-11, No Iterations 2
smoothSolver:  Solving for Uy, Initial residual = 0.0047356, Final residual = 2.3722e-10, No Iterations 2
smoothSolver:  Solving for Uz, Initial residual = 0.0049519, Final residual = 1.5453e-10, No Iterations 2
DICPCG:  Solving for p, Initial residual = 0.029524, Final residual = 0.00026293, No Iterations 25
DICPCG:  Solving for p, Initial residual = 0.0019534, Final residual = 9.6076e-10, No Iterations 53
time step continuity errors : sum local = 1.4138e-12, global = 8.2395e-15, cumulative = -8.6647e-08
ExecutionTime = 23.79 s  ClockTime = 427 s

surfaceRegion PRESSURE_mantle write:
    none(mantle) of p = 0

surfaceRegion TRACTION_mantle write:
    none(mantle) of wallShearStress = (0 0 0)

I get past the save

Reading pointDisplacement

prev_runTime0.0001
GAMG:  Solving for cellDisplacementx, Initial residual = 0.0039988, Final residual = 1.7039e-08, No Iterations 7
GAMG:  Solving for cellDisplacementy, Initial residual = 0.010439, Final residual = 4.722e-08, No Iterations 7
GAMG:  Solving for cellDisplacementz, Initial residual = 0.010423, Final residual = 4.0776e-08, No Iterations 7
PIMPLE: iteration 1
smoothSolver:  Solving for Ux, Initial residual = 3.0726e-05, Final residual = 2.1737e-09, No Iterations 1
smoothSolver:  Solving for Uy, Initial residual = 8.3534e-05, Final residual = 8.0811e-09, No Iterations 1
smoothSolver:  Solving for Uz, Initial residual = 6.3656e-05, Final residual = 5.8345e-09, No Iterations 1
DICPCG:  Solving for p, Initial residual = 0.042594, Final residual = 0.00037941, No Iterations 34
DICPCG:  Solving for p, Initial residual = 0.0034779, Final residual = 2.6021e-05, No Iterations 18
time step continuity errors : sum local = 2.8183e-08, global = -6.7782e-09, cumulative = -9.3425e-08
PIMPLE: iteration 2
smoothSolver:  Solving for Ux, Initial residual = 0.0026577, Final residual = 1.1412e-07, No Iterations 1
smoothSolver:  Solving for Uy, Initial residual = 0.0065312, Final residual = 3.4981e-07, No Iterations 1
smoothSolver:  Solving for Uz, Initial residual = 0.0060035, Final residual = 3.264e-07, No Iterations 1
DICPCG:  Solving for p, Initial residual = 0.0074231, Final residual = 5.9054e-05, No Iterations 24
DICPCG:  Solving for p, Initial residual = 0.00049865, Final residual = 4.615e-06, No Iterations 32
time step continuity errors : sum local = 4.9657e-09, global = 7.5295e-11, cumulative = -9.335e-08
PIMPLE: iteration 3
smoothSolver:  Solving for Ux, Initial residual = 0.001596, Final residual = 4.4765e-11, No Iterations 2
smoothSolver:  Solving for Uy, Initial residual = 0.0041288, Final residual = 1.4648e-10, No Iterations 2
smoothSolver:  Solving for Uz, Initial residual = 0.0037398, Final residual = 1.3581e-10, No Iterations 2
DICPCG:  Solving for p, Initial residual = 0.029563, Final residual = 0.00028941, No Iterations 9
DICPCG:  Solving for p, Initial residual = 0.0019228, Final residual = 7.963e-10, No Iterations 54
time step continuity errors : sum local = 1.1735e-12, global = 2.2548e-14, cumulative = -9.335e-08
ExecutionTime = 24.83 s  ClockTime = 447 s

surfaceRegion PRESSURE_mantle write:
    none(mantle) of p = 0

surfaceRegion TRACTION_mantle write:
    none(mantle) of wallShearStress = (0 0 0)

I get past the save

Reading pointDisplacement

prev_runTime0.0001
GAMG:  Solving for cellDisplacementx, Initial residual = 0.0022314, Final residual = 3.8909e-09, No Iterations 6
GAMG:  Solving for cellDisplacementy, Initial residual = 0.0065143, Final residual = 5.6797e-08, No Iterations 5
GAMG:  Solving for cellDisplacementz, Initial residual = 0.0058321, Final residual = 1.988e-08, No Iterations 6
PIMPLE: iteration 1
smoothSolver:  Solving for Ux, Initial residual = 2.8625e-05, Final residual = 2.6338e-09, No Iterations 1
smoothSolver:  Solving for Uy, Initial residual = 8.3514e-05, Final residual = 7.3259e-09, No Iterations 1
smoothSolver:  Solving for Uz, Initial residual = 6.339e-05, Final residual = 5.6581e-09, No Iterations 1
DICPCG:  Solving for p, Initial residual = 0.038322, Final residual = 0.00034607, No Iterations 27
DICPCG:  Solving for p, Initial residual = 0.0029618, Final residual = 2.8959e-05, No Iterations 18
time step continuity errors : sum local = 3.1374e-08, global = 4.7467e-09, cumulative = -8.8603e-08
PIMPLE: iteration 2
smoothSolver:  Solving for Ux, Initial residual = 0.0020374, Final residual = 1.1909e-07, No Iterations 1
smoothSolver:  Solving for Uy, Initial residual = 0.0068312, Final residual = 3.6043e-07, No Iterations 1
smoothSolver:  Solving for Uz, Initial residual = 0.0041695, Final residual = 2.7129e-07, No Iterations 1
DICPCG:  Solving for p, Initial residual = 0.0069096, Final residual = 5.4927e-05, No Iterations 24
DICPCG:  Solving for p, Initial residual = 0.00044351, Final residual = 3.982e-06, No Iterations 29
time step continuity errors : sum local = 4.2867e-09, global = -1.8786e-10, cumulative = -8.8791e-08
PIMPLE: iteration 3
smoothSolver:  Solving for Ux, Initial residual = 0.0012665, Final residual = 4.5651e-11, No Iterations 2
smoothSolver:  Solving for Uy, Initial residual = 0.00428, Final residual = 1.516e-10, No Iterations 2
smoothSolver:  Solving for Uz, Initial residual = 0.0027323, Final residual = 1.1605e-10, No Iterations 2
DICPCG:  Solving for p, Initial residual = 0.029542, Final residual = 0.00026899, No Iterations 9
DICPCG:  Solving for p, Initial residual = 0.0019098, Final residual = 7.8862e-10, No Iterations 54
time step continuity errors : sum local = 1.1629e-12, global = -2.8686e-15, cumulative = -8.8791e-08
ExecutionTime = 25.76 s  ClockTime = 466 s

surfaceRegion PRESSURE_mantle write:
    none(mantle) of p = 0

surfaceRegion TRACTION_mantle write:
    none(mantle) of wallShearStress = (0 0 0)

I get past the save

Reading pointDisplacement

prev_runTime0.0001
GAMG:  Solving for cellDisplacementx, Initial residual = 0.00097419, Final residual = 2.5869e-09, No Iterations 6
GAMG:  Solving for cellDisplacementy, Initial residual = 0.0044851, Final residual = 1.7054e-08, No Iterations 6
GAMG:  Solving for cellDisplacementz, Initial residual = 0.0049605, Final residual = 3.952e-08, No Iterations 5
PIMPLE: iteration 1
smoothSolver:  Solving for Ux, Initial residual = 2.7171e-05, Final residual = 2.5901e-09, No Iterations 1
smoothSolver:  Solving for Uy, Initial residual = 8.3618e-05, Final residual = 7.5037e-09, No Iterations 1
smoothSolver:  Solving for Uz, Initial residual = 6.2533e-05, Final residual = 5.601e-09, No Iterations 1
DICPCG:  Solving for p, Initial residual = 0.037611, Final residual = 0.00034496, No Iterations 26
DICPCG:  Solving for p, Initial residual = 0.0029663, Final residual = 2.3118e-05, No Iterations 32
time step continuity errors : sum local = 2.5057e-08, global = 7.6973e-10, cumulative = -8.8021e-08
PIMPLE: iteration 2
smoothSolver:  Solving for Ux, Initial residual = 0.0017608, Final residual = 1.1964e-07, No Iterations 1
smoothSolver:  Solving for Uy, Initial residual = 0.0051813, Final residual = 3.6851e-07, No Iterations 1
smoothSolver:  Solving for Uz, Initial residual = 0.0052206, Final residual = 2.9659e-07, No Iterations 1
DICPCG:  Solving for p, Initial residual = 0.0068306, Final residual = 4.825e-05, No Iterations 8
DICPCG:  Solving for p, Initial residual = 0.000447, Final residual = 3.4847e-06, No Iterations 32
time step continuity errors : sum local = 3.7537e-09, global = 6.8023e-11, cumulative = -8.7953e-08
PIMPLE: iteration 3
smoothSolver:  Solving for Ux, Initial residual = 0.0011097, Final residual = 4.4961e-11, No Iterations 2
smoothSolver:  Solving for Uy, Initial residual = 0.0034197, Final residual = 1.5733e-10, No Iterations 2
smoothSolver:  Solving for Uz, Initial residual = 0.0032944, Final residual = 1.2682e-10, No Iterations 2
DICPCG:  Solving for p, Initial residual = 0.029491, Final residual = 0.00027281, No Iterations 9
DICPCG:  Solving for p, Initial residual = 0.0019093, Final residual = 6.6746e-10, No Iterations 54
time step continuity errors : sum local = 9.8491e-13, global = 1.8815e-14, cumulative = -8.7953e-08
ExecutionTime = 26.87 s  ClockTime = 486 s

surfaceRegion PRESSURE_mantle write:
    none(mantle) of p = 0

surfaceRegion TRACTION_mantle write:
    none(mantle) of wallShearStress = (0 0 0)

I get past the save

Reading pointDisplacement

prev_runTime0.0001
GAMG:  Solving for cellDisplacementx, Initial residual = 0.00065097, Final residual = 1.9127e-09, No Iterations 6
GAMG:  Solving for cellDisplacementy, Initial residual = 0.0037777, Final residual = 1.001e-08, No Iterations 6
GAMG:  Solving for cellDisplacementz, Initial residual = 0.0036848, Final residual = 9.1003e-09, No Iterations 6
PIMPLE: iteration 1
smoothSolver:  Solving for Ux, Initial residual = 2.7242e-05, Final residual = 2.5754e-09, No Iterations 1
smoothSolver:  Solving for Uy, Initial residual = 8.1809e-05, Final residual = 7.5473e-09, No Iterations 1
smoothSolver:  Solving for Uz, Initial residual = 6.2356e-05, Final residual = 5.6035e-09, No Iterations 1
DICPCG:  Solving for p, Initial residual = 0.037444, Final residual = 0.00032704, No Iterations 9
DICPCG:  Solving for p, Initial residual = 0.0025667, Final residual = 1.9471e-05, No Iterations 28
time step continuity errors : sum local = 2.1105e-08, global = -1.2626e-09, cumulative = -8.9216e-08
PIMPLE: iteration 2
smoothSolver:  Solving for Ux, Initial residual = 0.0015985, Final residual = 1.121e-07, No Iterations 1
smoothSolver:  Solving for Uy, Initial residual = 0.0056049, Final residual = 4.0009e-07, No Iterations 1
smoothSolver:  Solving for Uz, Initial residual = 0.0041254, Final residual = 2.927e-07, No Iterations 1
DICPCG:  Solving for p, Initial residual = 0.0067689, Final residual = 6.5411e-05, No Iterations 7
DICPCG:  Solving for p, Initial residual = 0.00040857, Final residual = 3.2342e-06, No Iterations 32
time step continuity errors : sum local = 3.4844e-09, global = -2.05e-10, cumulative = -8.9421e-08
PIMPLE: iteration 3
smoothSolver:  Solving for Ux, Initial residual = 0.001026, Final residual = 4.2428e-11, No Iterations 2
smoothSolver:  Solving for Uy, Initial residual = 0.0036346, Final residual = 1.6847e-10, No Iterations 2
smoothSolver:  Solving for Uz, Initial residual = 0.0027026, Final residual = 1.2642e-10, No Iterations 2
DICPCG:  Solving for p, Initial residual = 0.029486, Final residual = 0.0002597, No Iterations 9
DICPCG:  Solving for p, Initial residual = 0.0018898, Final residual = 7.473e-10, No Iterations 54
time step continuity errors : sum local = 1.1029e-12, global = 1.7023e-14, cumulative = -8.9421e-08
ExecutionTime = 27.92 s  ClockTime = 507 s

surfaceRegion PRESSURE_mantle write:
    none(mantle) of p = 0

surfaceRegion TRACTION_mantle write:
    none(mantle) of wallShearStress = (0 0 0)

I get past the save

Reading pointDisplacement

prev_runTime0.0001
GAMG:  Solving for cellDisplacementx, Initial residual = 0.0010219, Final residual = 2.2231e-09, No Iterations 6
GAMG:  Solving for cellDisplacementy, Initial residual = 0.0035089, Final residual = 2.9072e-08, No Iterations 5
GAMG:  Solving for cellDisplacementz, Initial residual = 0.0031346, Final residual = 7.1785e-09, No Iterations 6
PIMPLE: iteration 1
smoothSolver:  Solving for Ux, Initial residual = 2.7117e-05, Final residual = 2.7217e-09, No Iterations 1
smoothSolver:  Solving for Uy, Initial residual = 8.1605e-05, Final residual = 7.5332e-09, No Iterations 1
smoothSolver:  Solving for Uz, Initial residual = 6.1795e-05, Final residual = 5.6192e-09, No Iterations 1
DICPCG:  Solving for p, Initial residual = 0.037399, Final residual = 0.00033472, No Iterations 12
DICPCG:  Solving for p, Initial residual = 0.0027388, Final residual = 2.6722e-05, No Iterations 29
time step continuity errors : sum local = 2.9009e-08, global = 3.637e-09, cumulative = -8.5784e-08
PIMPLE: iteration 2
smoothSolver:  Solving for Ux, Initial residual = 0.0015647, Final residual = 1.1364e-07, No Iterations 1
smoothSolver:  Solving for Uy, Initial residual = 0.0063413, Final residual = 3.7795e-07, No Iterations 1
smoothSolver:  Solving for Uz, Initial residual = 0.0039702, Final residual = 2.8288e-07, No Iterations 1
DICPCG:  Solving for p, Initial residual = 0.0068156, Final residual = 4.1794e-05, No Iterations 8
DICPCG:  Solving for p, Initial residual = 0.0004223, Final residual = 4.1319e-06, No Iterations 30
time step continuity errors : sum local = 4.4584e-09, global = -1.569e-10, cumulative = -8.5941e-08
PIMPLE: iteration 3
smoothSolver:  Solving for Ux, Initial residual = 0.001005, Final residual = 4.2268e-11, No Iterations 2
smoothSolver:  Solving for Uy, Initial residual = 0.0040368, Final residual = 1.5857e-10, No Iterations 2
smoothSolver:  Solving for Uz, Initial residual = 0.0026142, Final residual = 1.2227e-10, No Iterations 2
DICPCG:  Solving for p, Initial residual = 0.029528, Final residual = 0.00027395, No Iterations 9
DICPCG:  Solving for p, Initial residual = 0.0019066, Final residual = 8.6751e-10, No Iterations 54
time step continuity errors : sum local = 1.2822e-12, global = 8.9304e-15, cumulative = -8.5941e-08
ExecutionTime = 29 s  ClockTime = 527 s

surfaceRegion PRESSURE_mantle write:
    none(mantle) of p = 0

surfaceRegion TRACTION_mantle write:
    none(mantle) of wallShearStress = (0 0 0)

I get past the save

Reading pointDisplacement

prev_runTime0.0001
GAMG:  Solving for cellDisplacementx, Initial residual = 0.00084015, Final residual = 5.2027e-09, No Iterations 7
GAMG:  Solving for cellDisplacementy, Initial residual = 0.0024681, Final residual = 1.0661e-08, No Iterations 8
GAMG:  Solving for cellDisplacementz, Initial residual = 0.0025491, Final residual = 1.0806e-08, No Iterations 7
PIMPLE: iteration 1
smoothSolver:  Solving for Ux, Initial residual = 2.7103e-05, Final residual = 2.6501e-09, No Iterations 1
smoothSolver:  Solving for Uy, Initial residual = 8.1998e-05, Final residual = 7.5914e-09, No Iterations 1
smoothSolver:  Solving for Uz, Initial residual = 6.2015e-05, Final residual = 5.6796e-09, No Iterations 1
DICPCG:  Solving for p, Initial residual = 0.036828, Final residual = 0.00032553, No Iterations 27
DICPCG:  Solving for p, Initial residual = 0.0025378, Final residual = 2.3825e-05, No Iterations 31
time step continuity errors : sum local = 2.5874e-08, global = 1.5044e-10, cumulative = -8.579e-08
PIMPLE: iteration 2
smoothSolver:  Solving for Ux, Initial residual = 0.0016951, Final residual = 1.0796e-07, No Iterations 1
smoothSolver:  Solving for Uy, Initial residual = 0.0050362, Final residual = 3.727e-07, No Iterations 1
smoothSolver:  Solving for Uz, Initial residual = 0.0042221, Final residual = 2.7634e-07, No Iterations 1
DICPCG:  Solving for p, Initial residual = 0.0067123, Final residual = 4.8793e-05, No Iterations 8
DICPCG:  Solving for p, Initial residual = 0.00040674, Final residual = 2.9652e-06, No Iterations 33
time step continuity errors : sum local = 3.2006e-09, global = -8.8795e-11, cumulative = -8.5879e-08
PIMPLE: iteration 3
smoothSolver:  Solving for Ux, Initial residual = 0.0010746, Final residual = 4.0689e-11, No Iterations 2
smoothSolver:  Solving for Uy, Initial residual = 0.0033268, Final residual = 1.5849e-10, No Iterations 2
smoothSolver:  Solving for Uz, Initial residual = 0.0027471, Final residual = 1.1978e-10, No Iterations 2
DICPCG:  Solving for p, Initial residual = 0.029518, Final residual = 0.00026717, No Iterations 9
DICPCG:  Solving for p, Initial residual = 0.0018973, Final residual = 6.8765e-10, No Iterations 54
time step continuity errors : sum local = 1.0167e-12, global = 2.0916e-14, cumulative = -8.5879e-08
ExecutionTime = 30.05 s  ClockTime = 547 s

surfaceRegion PRESSURE_mantle write:
    none(mantle) of p = 0

surfaceRegion TRACTION_mantle write:
    none(mantle) of wallShearStress = (0 0 0)

I get past the save

Reading pointDisplacement

prev_runTime0.0001
GAMG:  Solving for cellDisplacementx, Initial residual = 0.00048935, Final residual = 3.525e-09, No Iterations 5
GAMG:  Solving for cellDisplacementy, Initial residual = 0.0018133, Final residual = 4.1317e-09, No Iterations 6
GAMG:  Solving for cellDisplacementz, Initial residual = 0.0019533, Final residual = 3.3922e-09, No Iterations 6
PIMPLE: iteration 1
smoothSolver:  Solving for Ux, Initial residual = 2.7026e-05, Final residual = 2.6916e-09, No Iterations 1
smoothSolver:  Solving for Uy, Initial residual = 8.1411e-05, Final residual = 7.5027e-09, No Iterations 1
smoothSolver:  Solving for Uz, Initial residual = 6.1756e-05, Final residual = 5.5788e-09, No Iterations 1
DICPCG:  Solving for p, Initial residual = 0.036542, Final residual = 0.00031549, No Iterations 12
DICPCG:  Solving for p, Initial residual = 0.0024392, Final residual = 2.3471e-05, No Iterations 31
time step continuity errors : sum local = 2.5491e-08, global = 1.6007e-09, cumulative = -8.4278e-08
PIMPLE: iteration 2
smoothSolver:  Solving for Ux, Initial residual = 0.0015766, Final residual = 1.1038e-07, No Iterations 1
smoothSolver:  Solving for Uy, Initial residual = 0.0048967, Final residual = 3.8408e-07, No Iterations 1
smoothSolver:  Solving for Uz, Initial residual = 0.0040505, Final residual = 2.8489e-07, No Iterations 1
DICPCG:  Solving for p, Initial residual = 0.0066861, Final residual = 4.8891e-05, No Iterations 7
DICPCG:  Solving for p, Initial residual = 0.00039203, Final residual = 3.8149e-06, No Iterations 30
time step continuity errors : sum local = 4.1182e-09, global = 2.7057e-10, cumulative = -8.4008e-08
PIMPLE: iteration 3
smoothSolver:  Solving for Ux, Initial residual = 0.0010132, Final residual = 4.1245e-11, No Iterations 2
smoothSolver:  Solving for Uy, Initial residual = 0.003252, Final residual = 1.628e-10, No Iterations 2
smoothSolver:  Solving for Uz, Initial residual = 0.0026627, Final residual = 1.2289e-10, No Iterations 2
DICPCG:  Solving for p, Initial residual = 0.029526, Final residual = 0.00026398, No Iterations 9
DICPCG:  Solving for p, Initial residual = 0.0018937, Final residual = 6.7586e-10, No Iterations 54
time step continuity errors : sum local = 9.9928e-13, global = 2.2813e-14, cumulative = -8.4008e-08
ExecutionTime = 31.09 s  ClockTime = 566 s

surfaceRegion PRESSURE_mantle write:
    none(mantle) of p = 0

surfaceRegion TRACTION_mantle write:
    none(mantle) of wallShearStress = (0 0 0)

I get past the save

Reading pointDisplacement

prev_runTime0.0001
GAMG:  Solving for cellDisplacementx, Initial residual = 0.00047609, Final residual = 2.1183e-09, No Iterations 7
GAMG:  Solving for cellDisplacementy, Initial residual = 0.0011858, Final residual = 7.9128e-09, No Iterations 7
GAMG:  Solving for cellDisplacementz, Initial residual = 0.0011343, Final residual = 4.5897e-09, No Iterations 8
PIMPLE: iteration 1
smoothSolver:  Solving for Ux, Initial residual = 2.7224e-05, Final residual = 2.7606e-09, No Iterations 1
smoothSolver:  Solving for Uy, Initial residual = 8.1201e-05, Final residual = 7.4837e-09, No Iterations 1
smoothSolver:  Solving for Uz, Initial residual = 6.1562e-05, Final residual = 5.5561e-09, No Iterations 1
DICPCG:  Solving for p, Initial residual = 0.035765, Final residual = 0.00032718, No Iterations 12
DICPCG:  Solving for p, Initial residual = 0.0023001, Final residual = 1.8301e-05, No Iterations 19
time step continuity errors : sum local = 1.9867e-08, global = -2.7494e-10, cumulative = -8.4283e-08
PIMPLE: iteration 2
smoothSolver:  Solving for Ux, Initial residual = 0.0014824, Final residual = 1.0533e-07, No Iterations 1
smoothSolver:  Solving for Uy, Initial residual = 0.00495, Final residual = 3.7584e-07, No Iterations 1
smoothSolver:  Solving for Uz, Initial residual = 0.0035256, Final residual = 2.8571e-07, No Iterations 1
DICPCG:  Solving for p, Initial residual = 0.0065838, Final residual = 4.8806e-05, No Iterations 7
DICPCG:  Solving for p, Initial residual = 0.00037979, Final residual = 2.7378e-06, No Iterations 19
time step continuity errors : sum local = 2.9545e-09, global = 7.3028e-10, cumulative = -8.3552e-08
PIMPLE: iteration 3
smoothSolver:  Solving for Ux, Initial residual = 0.00096344, Final residual = 9.8685e-08, No Iterations 1
smoothSolver:  Solving for Uy, Initial residual = 0.0032839, Final residual = 1.5968e-10, No Iterations 2
smoothSolver:  Solving for Uz, Initial residual = 0.0023738, Final residual = 1.2411e-10, No Iterations 2
DICPCG:  Solving for p, Initial residual = 0.0295, Final residual = 0.00027256, No Iterations 9
DICPCG:  Solving for p, Initial residual = 0.0018962, Final residual = 7.1792e-10, No Iterations 54
time step continuity errors : sum local = 1.0611e-12, global = 1.5808e-14, cumulative = -8.3552e-08
ExecutionTime = 32.18 s  ClockTime = 586 s

surfaceRegion PRESSURE_mantle write:
    none(mantle) of p = 0

surfaceRegion TRACTION_mantle write:
    none(mantle) of wallShearStress = (0 0 0)

I get past the save

Reading pointDisplacement

prev_runTime0.0001
GAMG:  Solving for cellDisplacementx, Initial residual = 0.00035637, Final residual = 2.1784e-09, No Iterations 7
GAMG:  Solving for cellDisplacementy, Initial residual = 0.00055158, Final residual = 2.4397e-09, No Iterations 8
GAMG:  Solving for cellDisplacementz, Initial residual = 0.00052916, Final residual = 2.4645e-09, No Iterations 7
PIMPLE: iteration 1
[...]
GAMG:  Solving for cellDisplacementy, Initial residual = 0.0054712, Final residual = 3.9951e-08, No Iterations 9
GAMG:  Solving for cellDisplacementz, Initial residual = 0.0045426, Final residual = 3.5037e-08, No Iterations 8
PIMPLE: iteration 1
smoothSolver:  Solving for Ux, Initial residual = 0.0046285, Final residual = 2.7002e-05, No Iterations 1
smoothSolver:  Solving for Uy, Initial residual = 0.0036494, Final residual = 1.4773e-05, No Iterations 1
smoothSolver:  Solving for Uz, Initial residual = 0.0039364, Final residual = 1.591e-05, No Iterations 1
DICPCG:  Solving for p, Initial residual = 0.10177, Final residual = 0.00076706, No Iterations 32
DICPCG:  Solving for p, Initial residual = 0.014281, Final residual = 0.00012584, No Iterations 18
time step continuity errors : sum local = 3.457e-06, global = -4.2172e-07, cumulative = -3.9609e-06
PIMPLE: iteration 2
smoothSolver:  Solving for Ux, Initial residual = 0.0084769, Final residual = 2.974e-05, No Iterations 1
smoothSolver:  Solving for Uy, Initial residual = 0.003547, Final residual = 1.4428e-05, No Iterations 1
smoothSolver:  Solving for Uz, Initial residual = 0.0028412, Final residual = 1.2727e-05, No Iterations 1
DICPCG:  Solving for p, Initial residual = 0.023635, Final residual = 0.00023338, No Iterations 17
DICPCG:  Solving for p, Initial residual = 0.0025364, Final residual = 2.1301e-05, No Iterations 35
time step continuity errors : sum local = 6.1807e-07, global = 1.8304e-08, cumulative = -3.9426e-06
PIMPLE: iteration 3
smoothSolver:  Solving for Ux, Initial residual = 0.0043039, Final residual = 4.1526e-09, No Iterations 3
smoothSolver:  Solving for Uy, Initial residual = 0.0025066, Final residual = 1.7138e-09, No Iterations 3
smoothSolver:  Solving for Uz, Initial residual = 0.0019991, Final residual = 2.0066e-09, No Iterations 3
DICPCG:  Solving for p, Initial residual = 0.095848, Final residual = 0.000935, No Iterations 24
DICPCG:  Solving for p, Initial residual = 0.0093253, Final residual = 7.5166e-10, No Iterations 60
time step continuity errors : sum local = 2.7792e-11, global = 7.3993e-13, cumulative = -3.9426e-06
ExecutionTime = 300.05 s  ClockTime = 5525 s

surfaceRegion PRESSURE_mantle write:
    none(mantle) of p = 0

surfaceRegion TRACTION_mantle write:
    none(mantle) of wallShearStress = (0 0 0)

I get past the save

Reading pointDisplacement

prev_runTime0.0038
GAMG:  Solving for cellDisplacementx, Initial residual = 0.0019126, Final residual = 7.7541e-09, No Iterations 6
GAMG:  Solving for cellDisplacementy, Initial residual = 0.0029534, Final residual = 2.26e-08, No Iterations 6
GAMG:  Solving for cellDisplacementz, Initial residual = 0.0024726, Final residual = 1.5954e-08, No Iterations 6
PIMPLE: iteration 1
smoothSolver:  Solving for Ux, Initial residual = 0.0017959, Final residual = 1.6848e-05, No Iterations 1
smoothSolver:  Solving for Uy, Initial residual = 0.0020202, Final residual = 9.4161e-06, No Iterations 1
smoothSolver:  Solving for Uz, Initial residual = 0.0019223, Final residual = 8.1894e-06, No Iterations 1
DICPCG:  Solving for p, Initial residual = 0.11328, Final residual = 0.001113, No Iterations 27
DICPCG:  Solving for p, Initial residual = 0.0099153, Final residual = 7.1658e-05, No Iterations 33
time step continuity errors : sum local = 2.2331e-06, global = -2.0208e-07, cumulative = -4.1447e-06
PIMPLE: iteration 2
smoothSolver:  Solving for Ux, Initial residual = 0.002738, Final residual = 2.0813e-05, No Iterations 1
smoothSolver:  Solving for Uy, Initial residual = 0.0032534, Final residual = 1.4196e-05, No Iterations 1
smoothSolver:  Solving for Uz, Initial residual = 0.002607, Final residual = 1.3196e-05, No Iterations 1
DICPCG:  Solving for p, Initial residual = 0.019266, Final residual = 0.00018437, No Iterations 8
DICPCG:  Solving for p, Initial residual = 0.0017734, Final residual = 1.6719e-05, No Iterations 22
time step continuity errors : sum local = 5.0662e-07, global = -4.6215e-08, cumulative = -4.1909e-06
PIMPLE: iteration 3
smoothSolver:  Solving for Ux, Initial residual = 0.0017879, Final residual = 3.1903e-09, No Iterations 3
smoothSolver:  Solving for Uy, Initial residual = 0.0023815, Final residual = 1.8204e-09, No Iterations 3
smoothSolver:  Solving for Uz, Initial residual = 0.0018832, Final residual = 1.9546e-09, No Iterations 3
DICPCG:  Solving for p, Initial residual = 0.091617, Final residual = 0.00088899, No Iterations 7
DICPCG:  Solving for p, Initial residual = 0.0091341, Final residual = 9.6016e-10, No Iterations 60
time step continuity errors : sum local = 3.6344e-11, global = 2.307e-13, cumulative = -4.1909e-06
ExecutionTime = 301.1 s  ClockTime = 5545 s

surfaceRegion PRESSURE_mantle write:
    none(mantle) of p = 0

surfaceRegion TRACTION_mantle write:
    none(mantle) of wallShearStress = (0 0 0)

I get past the save

Reading pointDisplacement

prev_runTime0.0038
GAMG:  Solving for cellDisplacementx, Initial residual = 0.0014406, Final residual = 5.4561e-09, No Iterations 8
GAMG:  Solving for cellDisplacementy, Initial residual = 0.0018769, Final residual = 7.7232e-09, No Iterations 9
GAMG:  Solving for cellDisplacementz, Initial residual = 0.0016741, Final residual = 1.2616e-08, No Iterations 8
PIMPLE: iteration 1
smoothSolver:  Solving for Ux, Initial residual = 0.0015308, Final residual = 1.5317e-05, No Iterations 1
smoothSolver:  Solving for Uy, Initial residual = 0.001761, Final residual = 8.6285e-06, No Iterations 1
smoothSolver:  Solving for Uz, Initial residual = 0.0016955, Final residual = 7.9624e-06, No Iterations 1
DICPCG:  Solving for p, Initial residual = 0.11227, Final residual = 0.0009853, No Iterations 28
DICPCG:  Solving for p, Initial residual = 0.010534, Final residual = 9.3501e-05, No Iterations 19
time step continuity errors : sum local = 2.7626e-06, global = -4.0444e-08, cumulative = -4.2314e-06
PIMPLE: iteration 2
smoothSolver:  Solving for Ux, Initial residual = 0.0025416, Final residual = 1.9526e-05, No Iterations 1
smoothSolver:  Solving for Uy, Initial residual = 0.003246, Final residual = 1.4902e-05, No Iterations 1
smoothSolver:  Solving for Uz, Initial residual = 0.002453, Final residual = 1.2502e-05, No Iterations 1
DICPCG:  Solving for p, Initial residual = 0.020715, Final residual = 0.00015838, No Iterations 7
DICPCG:  Solving for p, Initial residual = 0.0019011, Final residual = 1.8439e-05, No Iterations 21
time step continuity errors : sum local = 5.408e-07, global = 1.167e-07, cumulative = -4.1147e-06
PIMPLE: iteration 3
smoothSolver:  Solving for Ux, Initial residual = 0.0017156, Final residual = 2.9772e-09, No Iterations 3
smoothSolver:  Solving for Uy, Initial residual = 0.002432, Final residual = 2.1203e-09, No Iterations 3
smoothSolver:  Solving for Uz, Initial residual = 0.0018279, Final residual = 1.9131e-09, No Iterations 3
DICPCG:  Solving for p, Initial residual = 0.094962, Final residual = 0.00074956, No Iterations 8
DICPCG:  Solving for p, Initial residual = 0.0094342, Final residual = 9.5841e-10, No Iterations 60
time step continuity errors : sum local = 3.4835e-11, global = 2.7077e-13, cumulative = -4.1147e-06
ExecutionTime = 302.14 s  ClockTime = 5565 s

surfaceRegion PRESSURE_mantle write:
    none(mantle) of p = 0

surfaceRegion TRACTION_mantle write:
    none(mantle) of wallShearStress = (0 0 0)

I get past the save

Reading pointDisplacement

prev_runTime0.0038
GAMG:  Solving for cellDisplacementx, Initial residual = 0.00067388, Final residual = 5.8057e-09, No Iterations 8
GAMG:  Solving for cellDisplacementy, Initial residual = 0.0014191, Final residual = 6.1295e-09, No Iterations 9
GAMG:  Solving for cellDisplacementz, Initial residual = 0.0012261, Final residual = 6.6362e-09, No Iterations 8
PIMPLE: iteration 1
smoothSolver:  Solving for Ux, Initial residual = 0.0013379, Final residual = 1.479e-05, No Iterations 1
smoothSolver:  Solving for Uy, Initial residual = 0.0016639, Final residual = 8.7933e-06, No Iterations 1
smoothSolver:  Solving for Uz, Initial residual = 0.0014542, Final residual = 7.1576e-06, No Iterations 1
DICPCG:  Solving for p, Initial residual = 0.11551, Final residual = 0.0010924, No Iterations 21
DICPCG:  Solving for p, Initial residual = 0.0099507, Final residual = 8.0545e-05, No Iterations 29
time step continuity errors : sum local = 2.4492e-06, global = 6.2953e-08, cumulative = -4.0517e-06
PIMPLE: iteration 2
smoothSolver:  Solving for Ux, Initial residual = 0.0022152, Final residual = 1.9195e-05, No Iterations 1
smoothSolver:  Solving for Uy, Initial residual = 0.0032587, Final residual = 1.4957e-05, No Iterations 1
smoothSolver:  Solving for Uz, Initial residual = 0.0025066, Final residual = 1.3114e-05, No Iterations 1
DICPCG:  Solving for p, Initial residual = 0.01931, Final residual = 0.00019091, No Iterations 7
DICPCG:  Solving for p, Initial residual = 0.0016489, Final residual = 1.5403e-05, No Iterations 33
time step continuity errors : sum local = 4.5866e-07, global = -4.0221e-08, cumulative = -4.0919e-06
PIMPLE: iteration 3
smoothSolver:  Solving for Ux, Initial residual = 0.0015765, Final residual = 2.9274e-09, No Iterations 3
smoothSolver:  Solving for Uy, Initial residual = 0.0024038, Final residual = 1.9475e-09, No Iterations 3
smoothSolver:  Solving for Uz, Initial residual = 0.0018511, Final residual = 2.0141e-09, No Iterations 3
DICPCG:  Solving for p, Initial residual = 0.093607, Final residual = 0.00080577, No Iterations 7
DICPCG:  Solving for p, Initial residual = 0.0092803, Final residual = 9.2889e-10, No Iterations 60
time step continuity errors : sum local = 3.4405e-11, global = 5.0228e-13, cumulative = -4.0919e-06
ExecutionTime = 303.29 s  ClockTime = 5585 s

surfaceRegion PRESSURE_mantle write:
    none(mantle) of p = 0

surfaceRegion TRACTION_mantle write:
    none(mantle) of wallShearStress = (0 0 0)

I get past the save

Reading pointDisplacement

prev_runTime0.0038
GAMG:  Solving for cellDisplacementx, Initial residual = 0.00045757, Final residual = 4.0742e-09, No Iterations 8
GAMG:  Solving for cellDisplacementy, Initial residual = 0.00099214, Final residual = 4.3285e-09, No Iterations 9
GAMG:  Solving for cellDisplacementz, Initial residual = 0.00085681, Final residual = 6.8887e-09, No Iterations 8
PIMPLE: iteration 1
smoothSolver:  Solving for Ux, Initial residual = 0.0012351, Final residual = 1.4301e-05, No Iterations 1
smoothSolver:  Solving for Uy, Initial residual = 0.001582, Final residual = 8.3366e-06, No Iterations 1
smoothSolver:  Solving for Uz, Initial residual = 0.0014106, Final residual = 6.9353e-06, No Iterations 1
DICPCG:  Solving for p, Initial residual = 0.1143, Final residual = 0.00094876, No Iterations 8
DICPCG:  Solving for p, Initial residual = 0.0098919, Final residual = 8.1795e-05, No Iterations 21
time step continuity errors : sum local = 2.4837e-06, global = -8.4543e-08, cumulative = -4.1765e-06
PIMPLE: iteration 2
smoothSolver:  Solving for Ux, Initial residual = 0.0020957, Final residual = 1.8608e-05, No Iterations 1
smoothSolver:  Solving for Uy, Initial residual = 0.0031958, Final residual = 1.4738e-05, No Iterations 1
smoothSolver:  Solving for Uz, Initial residual = 0.0023708, Final residual = 1.2148e-05, No Iterations 1
DICPCG:  Solving for p, Initial residual = 0.019913, Final residual = 0.00016907, No Iterations 6
DICPCG:  Solving for p, Initial residual = 0.0017513, Final residual = 1.3206e-05, No Iterations 29
time step continuity errors : sum local = 3.9286e-07, global = 2.9423e-08, cumulative = -4.1471e-06
PIMPLE: iteration 3
smoothSolver:  Solving for Ux, Initial residual = 0.0015383, Final residual = 2.8735e-09, No Iterations 3
smoothSolver:  Solving for Uy, Initial residual = 0.0024056, Final residual = 2.002e-09, No Iterations 3
smoothSolver:  Solving for Uz, Initial residual = 0.0017937, Final residual = 1.8903e-09, No Iterations 3
DICPCG:  Solving for p, Initial residual = 0.093603, Final residual = 0.00084655, No Iterations 7
DICPCG:  Solving for p, Initial residual = 0.0092605, Final residual = 5.8537e-10, No Iterations 61
time step continuity errors : sum local = 2.1649e-11, global = -8.9848e-14, cumulative = -4.1471e-06
ExecutionTime = 304.42 s  ClockTime = 5606 s

surfaceRegion PRESSURE_mantle write:
    none(mantle) of p = 0

surfaceRegion TRACTION_mantle write:
    none(mantle) of wallShearStress = (0 0 0)

I get past the save

Reading pointDisplacement

prev_runTime0.0038
GAMG:  Solving for cellDisplacementx, Initial residual = 0.00033474, Final residual = 1.2645e-09, No Iterations 6
GAMG:  Solving for cellDisplacementy, Initial residual = 0.00077937, Final residual = 5.0619e-09, No Iterations 6
GAMG:  Solving for cellDisplacementz, Initial residual = 0.00066562, Final residual = 3.2911e-09, No Iterations 6
PIMPLE: iteration 1
smoothSolver:  Solving for Ux, Initial residual = 0.0011749, Final residual = 1.4011e-05, No Iterations 1
smoothSolver:  Solving for Uy, Initial residual = 0.0015573, Final residual = 8.392e-06, No Iterations 1
smoothSolver:  Solving for Uz, Initial residual = 0.0012884, Final residual = 6.521e-06, No Iterations 1
DICPCG:  Solving for p, Initial residual = 0.11377, Final residual = 0.00099895, No Iterations 8
DICPCG:  Solving for p, Initial residual = 0.0097775, Final residual = 9.7601e-05, No Iterations 34
time step continuity errors : sum local = 2.9599e-06, global = -1.833e-07, cumulative = -4.3304e-06
PIMPLE: iteration 2
smoothSolver:  Solving for Ux, Initial residual = 0.002085, Final residual = 1.8782e-05, No Iterations 1
smoothSolver:  Solving for Uy, Initial residual = 0.0031831, Final residual = 1.4438e-05, No Iterations 1
smoothSolver:  Solving for Uz, Initial residual = 0.0024015, Final residual = 1.2078e-05, No Iterations 1
DICPCG:  Solving for p, Initial residual = 0.019269, Final residual = 0.00017379, No Iterations 8
DICPCG:  Solving for p, Initial residual = 0.0016321, Final residual = 1.3803e-05, No Iterations 34
time step continuity errors : sum local = 4.1049e-07, global = -2.9834e-08, cumulative = -4.3602e-06
PIMPLE: iteration 3
smoothSolver:  Solving for Ux, Initial residual = 0.0015345, Final residual = 2.9328e-09, No Iterations 3
smoothSolver:  Solving for Uy, Initial residual = 0.0023768, Final residual = 1.8708e-09, No Iterations 3
smoothSolver:  Solving for Uz, Initial residual = 0.0018055, Final residual = 1.9055e-09, No Iterations 3
DICPCG:  Solving for p, Initial residual = 0.093705, Final residual = 0.00082791, No Iterations 7
DICPCG:  Solving for p, Initial residual = 0.0092833, Final residual = 9.9566e-10, No Iterations 60
time step continuity errors : sum local = 3.6819e-11, global = 3.1096e-13, cumulative = -4.3602e-06
ExecutionTime = 305.58 s  ClockTime = 5627 s

surfaceRegion PRESSURE_mantle write:
    none(mantle) of p = 0

surfaceRegion TRACTION_mantle write:
    none(mantle) of wallShearStress = (0 0 0)

I get past the save

Reading pointDisplacement

prev_runTime0.0038
GAMG:  Solving for cellDisplacementx, Initial residual = 0.00022419, Final residual = 2.1757e-09, No Iterations 8
GAMG:  Solving for cellDisplacementy, Initial residual = 0.00056217, Final residual = 2.5012e-09, No Iterations 9
GAMG:  Solving for cellDisplacementz, Initial residual = 0.00047631, Final residual = 3.7658e-09, No Iterations 8
PIMPLE: iteration 1
smoothSolver:  Solving for Ux, Initial residual = 0.0011202, Final residual = 1.3902e-05, No Iterations 1
smoothSolver:  Solving for Uy, Initial residual = 0.0015067, Final residual = 8.1555e-06, No Iterations 1
smoothSolver:  Solving for Uz, Initial residual = 0.0012725, Final residual = 6.4193e-06, No Iterations 1
DICPCG:  Solving for p, Initial residual = 0.11397, Final residual = 0.0010791, No Iterations 7
DICPCG:  Solving for p, Initial residual = 0.0097871, Final residual = 7.0255e-05, No Iterations 35
time step continuity errors : sum local = 2.1327e-06, global = -8.6079e-08, cumulative = -4.4463e-06
PIMPLE: iteration 2
smoothSolver:  Solving for Ux, Initial residual = 0.0020818, Final residual = 1.8497e-05, No Iterations 1
smoothSolver:  Solving for Uy, Initial residual = 0.0031735, Final residual = 1.4505e-05, No Iterations 1
smoothSolver:  Solving for Uz, Initial residual = 0.0023405, Final residual = 1.1966e-05, No Iterations 1
DICPCG:  Solving for p, Initial residual = 0.019585, Final residual = 0.00016338, No Iterations 6
DICPCG:  Solving for p, Initial residual = 0.001698, Final residual = 1.6929e-05, No Iterations 33
time step continuity errors : sum local = 5.0534e-07, global = -5.5835e-08, cumulative = -4.5021e-06
PIMPLE: iteration 3
smoothSolver:  Solving for Ux, Initial residual = 0.001534, Final residual = 2.8694e-09, No Iterations 3
smoothSolver:  Solving for Uy, Initial residual = 0.002386, Final residual = 1.9206e-09, No Iterations 3
smoothSolver:  Solving for Uz, Initial residual = 0.0017824, Final residual = 1.893e-09, No Iterations 3
DICPCG:  Solving for p, Initial residual = 0.093294, Final residual = 0.00082419, No Iterations 7
DICPCG:  Solving for p, Initial residual = 0.0092217, Final residual = 5.898e-10, No Iterations 61
time step continuity errors : sum local = 2.1904e-11, global = -1.1946e-13, cumulative = -4.5021e-06
ExecutionTime = 306.77 s  ClockTime = 5648 s

surfaceRegion PRESSURE_mantle write:
    none(mantle) of p = 0

surfaceRegion TRACTION_mantle write:
    none(mantle) of wallShearStress = (0 0 0)

I get past the save

Courant Number mean: 0.11773 max: 0.61892
0.0039

Time = 0.0040

Reading pointDisplacement

prev_runTime0.0039
GAMG:  Solving for cellDisplacementx, Initial residual = 0.1034, Final residual = 1.6076e-07, No Iterations 6
GAMG:  Solving for cellDisplacementy, Initial residual = 0.070284, Final residual = 6.4292e-07, No Iterations 5
GAMG:  Solving for cellDisplacementz, Initial residual = 0.068964, Final residual = 1.2039e-07, No Iterations 6
PIMPLE: iteration 1
smoothSolver:  Solving for Ux, Initial residual = 0.085634, Final residual = 0.00045736, No Iterations 1
smoothSolver:  Solving for Uy, Initial residual = 0.076482, Final residual = 0.00033109, No Iterations 1
smoothSolver:  Solving for Uz, Initial residual = 0.065197, Final residual = 0.0003522, No Iterations 1
DICPCG:  Solving for p, Initial residual = 0.39839, Final residual = 0.0032244, No Iterations 40
DICPCG:  Solving for p, Initial residual = 0.039854, Final residual = 0.00033661, No Iterations 21
time step continuity errors : sum local = 2.7193e-05, global = 9.4339e-06, cumulative = 4.9318e-06
PIMPLE: iteration 2
smoothSolver:  Solving for Ux, Initial residual = 0.055976, Final residual = 0.00017691, No Iterations 1
smoothSolver:  Solving for Uy, Initial residual = 0.017045, Final residual = 0.00011351, No Iterations 1
smoothSolver:  Solving for Uz, Initial residual = 0.011566, Final residual = 8.3744e-05, No Iterations 1
DICPCG:  Solving for p, Initial residual = 0.065652, Final residual = 0.00049372, No Iterations 38
DICPCG:  Solving for p, Initial residual = 0.015763, Final residual = 0.00014905, No Iterations 35
time step continuity errors : sum local = 8.991e-06, global = 2.4452e-07, cumulative = 5.1763e-06
PIMPLE: iteration 3
smoothSolver:  Solving for Ux, Initial residual = 0.033415, Final residual = 2.6232e-08, No Iterations 3
smoothSolver:  Solving for Uy, Initial residual = 0.012396, Final residual = 2.3989e-08, No Iterations 3
smoothSolver:  Solving for Uz, Initial residual = 0.008838, Final residual = 7.9693e-09, No Iterations 3
DICPCG:  Solving for p, Initial residual = 0.046732, Final residual = 0.00029771, No Iterations 33
DICPCG:  Solving for p, Initial residual = 0.0072957, Final residual = 8.6111e-10, No Iterations 61
time step continuity errors : sum local = 6.6085e-11, global = 1.343e-12, cumulative = 5.1763e-06
ExecutionTime = 307.95 s  ClockTime = 5668 s

surfaceRegion PRESSURE_mantle write:
    none(mantle) of p = 0

surfaceRegion TRACTION_mantle write:
    none(mantle) of wallShearStress = (0 0 0)

I get past the save

