/*---------------------------------------------------------------------------*\
| =========                 |                                                 |
| \\      /  F ield         | OpenFOAM: The Open Source CFD Toolbox           |
|  \\    /   O peration     | Version:  4.1                                   |
|   \\  /    A nd           | Web:      www.OpenFOAM.org                      |
|    \\/     M anipulation  |                                                 |
\*---------------------------------------------------------------------------*/
Build  : 4.1
Exec   : CoCoNuT_pimpleFoam -parallel
Date   : Jan 25 2021
Time   : 16:23:03
Host   : "cfdclu27.ugent.be"
PID    : 14783
Case   : /lusers/temp/mathieu/PycharmProjects/coconut/test_examples/tube_OpenFoam3d_abaqus3d2Cores/CFD
nProcs : 8
Slaves : 
7
(
"cfdclu27.ugent.be.14784"
"cfdclu27.ugent.be.14785"
"cfdclu27.ugent.be.14786"
"cfdclu27.ugent.be.14787"
"cfdclu27.ugent.be.14788"
"cfdclu27.ugent.be.14789"
"cfdclu27.ugent.be.14790"
)

Pstream initialized with:
    floatTransfer      : 0
    nProcsSimpleSum    : 0
    commsType          : nonBlocking
    polling iterations : 0
sigFpe : Enabling floating point exception trapping (FOAM_SIGFPE).
fileModificationChecking : Monitoring run-time modified files using timeStampMaster
allowSystemOperations : Allowing user-supplied system call operations

// * * * * * * * * * * * * * * * * * * * * * * * * * * * * * * * * * * * * * //
Create time

Create mesh for time = 0.0000

Selecting dynamicFvMesh dynamicMotionSolverFvMesh
Selecting motion solver: displacementLaplacian
Selecting motion diffusion: inverseDistance

PIMPLE: no residual control data found. Calculations will employ 3 corrector loops

Reading field p

Reading field U

Reading/calculating face flux field phi

Selecting incompressible transport model Newtonian
Selecting turbulence model type laminar
No MRF models present

Reading/calculating face velocity Uf

No finite volume options present

Courant Number mean: 0 max: 0
surfaceRegion PRESSURE_mantle:
    total faces  = 1536
    total area   = 0.0015683


wallShearStress wallShearStress:
    processing all wall patches

surfaceRegion TRACTION_mantle:
    total faces  = 1536
    total area   = 0.0015683


Courant Number mean: 0 max: 0
0.0000

Time = 0.0001

Reading pointDisplacement

prev_runTime0.0000
GAMG:  Solving for cellDisplacementx, Initial residual = 0, Final residual = 0, No Iterations 0
GAMG:  Solving for cellDisplacementy, Initial residual = 0, Final residual = 0, No Iterations 0
GAMG:  Solving for cellDisplacementz, Initial residual = 0, Final residual = 0, No Iterations 0
PIMPLE: iteration 1
smoothSolver:  Solving for Ux, Initial residual = 1, Final residual = 1.1796e-06, No Iterations 1
smoothSolver:  Solving for Uy, Initial residual = 0.73907, Final residual = 3.7432e-05, No Iterations 1
smoothSolver:  Solving for Uz, Initial residual = 0.73907, Final residual = 3.7431e-05, No Iterations 1
DICPCG:  Solving for p, Initial residual = 1, Final residual = 0.006708, No Iterations 41
DICPCG:  Solving for p, Initial residual = 0.0033581, Final residual = 3.0114e-05, No Iterations 14
time step continuity errors : sum local = 2.1613e-08, global = -3.6898e-09, cumulative = -3.6898e-09
PIMPLE: iteration 2
smoothSolver:  Solving for Ux, Initial residual = 0.28312, Final residual = 1.5262e-05, No Iterations 1
smoothSolver:  Solving for Uy, Initial residual = 0.14473, Final residual = 3.1114e-06, No Iterations 1
smoothSolver:  Solving for Uz, Initial residual = 0.14529, Final residual = 2.9187e-06, No Iterations 1
DICPCG:  Solving for p, Initial residual = 0.19747, Final residual = 0.0014591, No Iterations 41
DICPCG:  Solving for p, Initial residual = 0.0012205, Final residual = 1.1065e-05, No Iterations 14
time step continuity errors : sum local = 8.2728e-09, global = -1.2827e-09, cumulative = -4.9725e-09
PIMPLE: iteration 3
smoothSolver:  Solving for Ux, Initial residual = 0.62744, Final residual = 2.0125e-08, No Iterations 2
smoothSolver:  Solving for Uy, Initial residual = 0.028653, Final residual = 5.6023e-10, No Iterations 2
smoothSolver:  Solving for Uz, Initial residual = 0.026803, Final residual = 4.7848e-10, No Iterations 2
DICPCG:  Solving for p, Initial residual = 0.046634, Final residual = 0.00041457, No Iterations 39
DICPCG:  Solving for p, Initial residual = 0.00040868, Final residual = 8.77e-10, No Iterations 52
time step continuity errors : sum local = 8.9588e-13, global = 1.818e-14, cumulative = -4.9724e-09
ExecutionTime = 0.2 s  ClockTime = 5 s

surfaceRegion PRESSURE_mantle write:
    none(mantle) of p = 0

surfaceRegion TRACTION_mantle write:
    none(mantle) of wallShearStress = (0 0 0)

I get past the save

Reading pointDisplacement

prev_runTime0.0000
GAMG:  Solving for cellDisplacementx, Initial residual = 1, Final residual = 4.7152e-06, No Iterations 5
GAMG:  Solving for cellDisplacementy, Initial residual = 1, Final residual = 3.6132e-06, No Iterations 6
GAMG:  Solving for cellDisplacementz, Initial residual = 1, Final residual = 3.3856e-06, No Iterations 6
PIMPLE: iteration 1
smoothSolver:  Solving for Ux, Initial residual = 0.28754, Final residual = 9.7745e-06, No Iterations 1
smoothSolver:  Solving for Uy, Initial residual = 0.23188, Final residual = 1.7064e-05, No Iterations 1
smoothSolver:  Solving for Uz, Initial residual = 0.23999, Final residual = 1.7651e-05, No Iterations 1
DICPCG:  Solving for p, Initial residual = 0.026284, Final residual = 0.00023992, No Iterations 39
DICPCG:  Solving for p, Initial residual = 0.0040681, Final residual = 2.7265e-05, No Iterations 6
time step continuity errors : sum local = 2.0584e-08, global = -2.1541e-09, cumulative = -7.1266e-09
PIMPLE: iteration 2
smoothSolver:  Solving for Ux, Initial residual = 0.13147, Final residual = 1.0376e-05, No Iterations 1
smoothSolver:  Solving for Uy, Initial residual = 0.1313, Final residual = 1.3176e-05, No Iterations 1
smoothSolver:  Solving for Uz, Initial residual = 0.1313, Final residual = 1.3168e-05, No Iterations 1
DICPCG:  Solving for p, Initial residual = 0.0044178, Final residual = 2.7815e-05, No Iterations 39
DICPCG:  Solving for p, Initial residual = 0.00062517, Final residual = 3.2502e-06, No Iterations 6
time step continuity errors : sum local = 2.4399e-09, global = -2.3486e-10, cumulative = -7.3614e-09
PIMPLE: iteration 3
smoothSolver:  Solving for Ux, Initial residual = 0.057076, Final residual = 2.3473e-09, No Iterations 2
smoothSolver:  Solving for Uy, Initial residual = 0.062785, Final residual = 3.4531e-09, No Iterations 2
smoothSolver:  Solving for Uz, Initial residual = 0.062766, Final residual = 3.4494e-09, No Iterations 2
DICPCG:  Solving for p, Initial residual = 0.0031481, Final residual = 1.9217e-05, No Iterations 39
DICPCG:  Solving for p, Initial residual = 0.00038275, Final residual = 8.5737e-10, No Iterations 48
time step continuity errors : sum local = 9.1364e-13, global = -1.525e-14, cumulative = -7.3615e-09
ExecutionTime = 0.49 s  ClockTime = 15 s

surfaceRegion PRESSURE_mantle write:
    none(mantle) of p = 0

surfaceRegion TRACTION_mantle write:
    none(mantle) of wallShearStress = (0 0 0)

I get past the save

Reading pointDisplacement

prev_runTime0.0000
GAMG:  Solving for cellDisplacementx, Initial residual = 0.97884, Final residual = 6.1312e-06, No Iterations 6
GAMG:  Solving for cellDisplacementy, Initial residual = 0.97364, Final residual = 5.2822e-06, No Iterations 7
GAMG:  Solving for cellDisplacementz, Initial residual = 0.97364, Final residual = 4.8059e-06, No Iterations 7
PIMPLE: iteration 1
smoothSolver:  Solving for Ux, Initial residual = 0.00068796, Final residual = 7.5968e-08, No Iterations 1
smoothSolver:  Solving for Uy, Initial residual = 0.08421, Final residual = 7.1072e-06, No Iterations 1
smoothSolver:  Solving for Uz, Initial residual = 0.084209, Final residual = 7.1042e-06, No Iterations 1
DICPCG:  Solving for p, Initial residual = 0.5402, Final residual = 0.0050134, No Iterations 40
DICPCG:  Solving for p, Initial residual = 0.027571, Final residual = 0.00025414, No Iterations 6
time step continuity errors : sum local = 1.1437e-06, global = -1.17e-07, cumulative = -1.2436e-07
PIMPLE: iteration 2
smoothSolver:  Solving for Ux, Initial residual = 0.13297, Final residual = 7.0233e-05, No Iterations 1
smoothSolver:  Solving for Uy, Initial residual = 0.13039, Final residual = 5.2763e-05, No Iterations 1
smoothSolver:  Solving for Uz, Initial residual = 0.13039, Final residual = 5.2754e-05, No Iterations 1
DICPCG:  Solving for p, Initial residual = 0.044203, Final residual = 0.00028701, No Iterations 40
DICPCG:  Solving for p, Initial residual = 0.0051964, Final residual = 3.5801e-05, No Iterations 6
time step continuity errors : sum local = 1.2984e-07, global = -1.0508e-08, cumulative = -1.3487e-07
PIMPLE: iteration 3
smoothSolver:  Solving for Ux, Initial residual = 0.058467, Final residual = 2.3697e-08, No Iterations 2
smoothSolver:  Solving for Uy, Initial residual = 0.063025, Final residual = 1.8602e-08, No Iterations 2
smoothSolver:  Solving for Uz, Initial residual = 0.062995, Final residual = 1.8577e-08, No Iterations 2
DICPCG:  Solving for p, Initial residual = 0.028747, Final residual = 0.00017896, No Iterations 40
DICPCG:  Solving for p, Initial residual = 0.0036983, Final residual = 6.0249e-10, No Iterations 56
time step continuity errors : sum local = 2.6976e-12, global = -7.3463e-14, cumulative = -1.3487e-07
ExecutionTime = 0.78 s  ClockTime = 25 s

surfaceRegion PRESSURE_mantle write:
    none(mantle) of p = 0

surfaceRegion TRACTION_mantle write:
    none(mantle) of wallShearStress = (0 0 0)

I get past the save

Reading pointDisplacement

prev_runTime0.0000
GAMG:  Solving for cellDisplacementx, Initial residual = 0.27495, Final residual = 2.3556e-06, No Iterations 4
GAMG:  Solving for cellDisplacementy, Initial residual = 0.61675, Final residual = 1.1499e-06, No Iterations 6
GAMG:  Solving for cellDisplacementz, Initial residual = 0.61675, Final residual = 5.7771e-06, No Iterations 5
PIMPLE: iteration 1
smoothSolver:  Solving for Ux, Initial residual = 0.00039975, Final residual = 2.0786e-07, No Iterations 1
smoothSolver:  Solving for Uy, Initial residual = 0.00083684, Final residual = 3.475e-07, No Iterations 1
smoothSolver:  Solving for Uz, Initial residual = 0.00083692, Final residual = 3.4752e-07, No Iterations 1
DICPCG:  Solving for p, Initial residual = 0.25674, Final residual = 0.0017451, No Iterations 38
DICPCG:  Solving for p, Initial residual = 0.036668, Final residual = 0.00026885, No Iterations 6
time step continuity errors : sum local = 8.2701e-07, global = 7.5343e-09, cumulative = -1.2734e-07
PIMPLE: iteration 2
smoothSolver:  Solving for Ux, Initial residual = 0.37903, Final residual = 8.4557e-05, No Iterations 1
smoothSolver:  Solving for Uy, Initial residual = 0.19789, Final residual = 4.7761e-05, No Iterations 1
smoothSolver:  Solving for Uz, Initial residual = 0.19794, Final residual = 4.7757e-05, No Iterations 1
DICPCG:  Solving for p, Initial residual = 0.068684, Final residual = 0.00059956, No Iterations 36
DICPCG:  Solving for p, Initial residual = 0.0082164, Final residual = 5.0676e-05, No Iterations 8
time step continuity errors : sum local = 1.0412e-07, global = 2.7666e-09, cumulative = -1.2457e-07
PIMPLE: iteration 3
smoothSolver:  Solving for Ux, Initial residual = 0.16961, Final residual = 2.5862e-08, No Iterations 2
smoothSolver:  Solving for Uy, Initial residual = 0.11169, Final residual = 1.9028e-08, No Iterations 2
smoothSolver:  Solving for Uz, Initial residual = 0.11164, Final residual = 1.9006e-08, No Iterations 2
DICPCG:  Solving for p, Initial residual = 0.034253, Final residual = 0.00029549, No Iterations 37
DICPCG:  Solving for p, Initial residual = 0.004058, Final residual = 8.2761e-10, No Iterations 57
time step continuity errors : sum local = 1.8913e-12, global = -1.6331e-14, cumulative = -1.2457e-07
ExecutionTime = 1.09 s  ClockTime = 36 s

surfaceRegion PRESSURE_mantle write:
    none(mantle) of p = 0

surfaceRegion TRACTION_mantle write:
    none(mantle) of wallShearStress = (0 0 0)

I get past the save

Reading pointDisplacement

prev_runTime0.0000
GAMG:  Solving for cellDisplacementx, Initial residual = 0.24543, Final residual = 1.9536e-06, No Iterations 6
GAMG:  Solving for cellDisplacementy, Initial residual = 0.58992, Final residual = 5.761e-06, No Iterations 8
GAMG:  Solving for cellDisplacementz, Initial residual = 0.58992, Final residual = 3.4442e-06, No Iterations 8
PIMPLE: iteration 1
smoothSolver:  Solving for Ux, Initial residual = 0.00050599, Final residual = 1.074e-07, No Iterations 1
smoothSolver:  Solving for Uy, Initial residual = 0.0005438, Final residual = 1.0783e-07, No Iterations 1
smoothSolver:  Solving for Uz, Initial residual = 0.0005436, Final residual = 1.0772e-07, No Iterations 1
DICPCG:  Solving for p, Initial residual = 0.26062, Final residual = 0.0024274, No Iterations 39
DICPCG:  Solving for p, Initial residual = 0.046768, Final residual = 0.00034691, No Iterations 8
time step continuity errors : sum local = 4.2876e-07, global = 2.3309e-08, cumulative = -1.0126e-07
PIMPLE: iteration 2
smoothSolver:  Solving for Ux, Initial residual = 0.30705, Final residual = 3.6344e-05, No Iterations 1
smoothSolver:  Solving for Uy, Initial residual = 0.1936, Final residual = 2.5985e-05, No Iterations 1
smoothSolver:  Solving for Uz, Initial residual = 0.1935, Final residual = 2.5952e-05, No Iterations 1
DICPCG:  Solving for p, Initial residual = 0.0541, Final residual = 0.00044807, No Iterations 29
DICPCG:  Solving for p, Initial residual = 0.0075998, Final residual = 7.4623e-05, No Iterations 21
time step continuity errors : sum local = 8.3651e-08, global = -7.2261e-09, cumulative = -1.0849e-07
PIMPLE: iteration 3
smoothSolver:  Solving for Ux, Initial residual = 0.14081, Final residual = 1.0265e-08, No Iterations 2
smoothSolver:  Solving for Uy, Initial residual = 0.10835, Final residual = 8.9304e-09, No Iterations 2
smoothSolver:  Solving for Uz, Initial residual = 0.10842, Final residual = 8.932e-09, No Iterations 2
DICPCG:  Solving for p, Initial residual = 0.0321, Final residual = 0.00029405, No Iterations 38
DICPCG:  Solving for p, Initial residual = 0.0031366, Final residual = 8.8374e-10, No Iterations 55
time step continuity errors : sum local = 1.3397e-12, global = 3.1731e-14, cumulative = -1.0849e-07
ExecutionTime = 1.39 s  ClockTime = 47 s

surfaceRegion PRESSURE_mantle write:
    none(mantle) of p = 0

surfaceRegion TRACTION_mantle write:
    none(mantle) of wallShearStress = (0 0 0)

I get past the save

Reading pointDisplacement

prev_runTime0.0000
GAMG:  Solving for cellDisplacementx, Initial residual = 0.13691, Final residual = 3.6913e-07, No Iterations 5
GAMG:  Solving for cellDisplacementy, Initial residual = 0.52663, Final residual = 9.7843e-07, No Iterations 6
GAMG:  Solving for cellDisplacementz, Initial residual = 0.52663, Final residual = 8.6325e-07, No Iterations 6
PIMPLE: iteration 1
smoothSolver:  Solving for Ux, Initial residual = 0.00032066, Final residual = 3.4709e-08, No Iterations 1
smoothSolver:  Solving for Uy, Initial residual = 0.0005106, Final residual = 5.4391e-08, No Iterations 1
smoothSolver:  Solving for Uz, Initial residual = 0.00051037, Final residual = 5.4329e-08, No Iterations 1
DICPCG:  Solving for p, Initial residual = 0.19679, Final residual = 0.0017053, No Iterations 30
DICPCG:  Solving for p, Initial residual = 0.027904, Final residual = 0.00025595, No Iterations 8
time step continuity errors : sum local = 2.5953e-07, global = 1.994e-09, cumulative = -1.0649e-07
PIMPLE: iteration 2
smoothSolver:  Solving for Ux, Initial residual = 0.20467, Final residual = 1.8687e-05, No Iterations 1
smoothSolver:  Solving for Uy, Initial residual = 0.16845, Final residual = 1.5288e-05, No Iterations 1
smoothSolver:  Solving for Uz, Initial residual = 0.16844, Final residual = 1.5273e-05, No Iterations 1
DICPCG:  Solving for p, Initial residual = 0.032219, Final residual = 0.00027568, No Iterations 29
DICPCG:  Solving for p, Initial residual = 0.0043873, Final residual = 3.9293e-05, No Iterations 24
time step continuity errors : sum local = 3.7153e-08, global = 2.0346e-09, cumulative = -1.0446e-07
PIMPLE: iteration 3
smoothSolver:  Solving for Ux, Initial residual = 0.098605, Final residual = 4.9094e-09, No Iterations 2
smoothSolver:  Solving for Uy, Initial residual = 0.090356, Final residual = 4.2817e-09, No Iterations 2
smoothSolver:  Solving for Uz, Initial residual = 0.090404, Final residual = 4.2818e-09, No Iterations 2
DICPCG:  Solving for p, Initial residual = 0.021613, Final residual = 0.00019688, No Iterations 28
DICPCG:  Solving for p, Initial residual = 0.0020659, Final residual = 4.8494e-10, No Iterations 55
time step continuity errors : sum local = 6.3327e-13, global = -2.5932e-15, cumulative = -1.0446e-07
ExecutionTime = 1.69 s  ClockTime = 57 s

surfaceRegion PRESSURE_mantle write:
    none(mantle) of p = 0

surfaceRegion TRACTION_mantle write:
    none(mantle) of wallShearStress = (0 0 0)

I get past the save

Reading pointDisplacement

prev_runTime0.0000
GAMG:  Solving for cellDisplacementx, Initial residual = 0.091279, Final residual = 2.0512e-07, No Iterations 5
GAMG:  Solving for cellDisplacementy, Initial residual = 0.37232, Final residual = 2.7447e-06, No Iterations 5
GAMG:  Solving for cellDisplacementz, Initial residual = 0.37232, Final residual = 3.086e-06, No Iterations 5
PIMPLE: iteration 1
smoothSolver:  Solving for Ux, Initial residual = 0.00017081, Final residual = 1.5421e-08, No Iterations 1
smoothSolver:  Solving for Uy, Initial residual = 0.00037136, Final residual = 2.8598e-08, No Iterations 1
smoothSolver:  Solving for Uz, Initial residual = 0.00037125, Final residual = 2.8563e-08, No Iterations 1
DICPCG:  Solving for p, Initial residual = 0.10408, Final residual = 0.00072011, No Iterations 29
DICPCG:  Solving for p, Initial residual = 0.013873, Final residual = 0.00013864, No Iterations 13
time step continuity errors : sum local = 1.2694e-07, global = -2.5647e-08, cumulative = -1.3011e-07
PIMPLE: iteration 2
smoothSolver:  Solving for Ux, Initial residual = 0.0848, Final residual = 6.1386e-06, No Iterations 1
smoothSolver:  Solving for Uy, Initial residual = 0.090915, Final residual = 7.209e-06, No Iterations 1
smoothSolver:  Solving for Uz, Initial residual = 0.090926, Final residual = 7.2029e-06, No Iterations 1
DICPCG:  Solving for p, Initial residual = 0.016574, Final residual = 0.00016353, No Iterations 23
DICPCG:  Solving for p, Initial residual = 0.0021573, Final residual = 1.6583e-05, No Iterations 32
time step continuity errors : sum local = 1.4674e-08, global = 9.11e-10, cumulative = -1.292e-07
PIMPLE: iteration 3
smoothSolver:  Solving for Ux, Initial residual = 0.046956, Final residual = 1.5573e-09, No Iterations 2
smoothSolver:  Solving for Uy, Initial residual = 0.051354, Final residual = 1.9819e-09, No Iterations 2
smoothSolver:  Solving for Uz, Initial residual = 0.051349, Final residual = 1.9805e-09, No Iterations 2
DICPCG:  Solving for p, Initial residual = 0.01586, Final residual = 0.00014885, No Iterations 19
DICPCG:  Solving for p, Initial residual = 0.0014712, Final residual = 8.3443e-10, No Iterations 54
time step continuity errors : sum local = 1.0313e-12, global = -1.2298e-14, cumulative = -1.292e-07
ExecutionTime = 2.01 s  ClockTime = 68 s

surfaceRegion PRESSURE_mantle write:
    none(mantle) of p = 0

surfaceRegion TRACTION_mantle write:
    none(mantle) of wallShearStress = (0 0 0)

I get past the save

Reading pointDisplacement

prev_runTime0.0000
GAMG:  Solving for cellDisplacementx, Initial residual = 0.035689, Final residual = 2.0181e-07, No Iterations 6
GAMG:  Solving for cellDisplacementy, Initial residual = 0.18897, Final residual = 1.49e-06, No Iterations 8
GAMG:  Solving for cellDisplacementz, Initial residual = 0.18897, Final residual = 1.7857e-06, No Iterations 7
PIMPLE: iteration 1
smoothSolver:  Solving for Ux, Initial residual = 7.4942e-05, Final residual = 5.3487e-09, No Iterations 1
smoothSolver:  Solving for Uy, Initial residual = 0.0002231, Final residual = 1.3831e-08, No Iterations 1
smoothSolver:  Solving for Uz, Initial residual = 0.00022314, Final residual = 1.3819e-08, No Iterations 1
DICPCG:  Solving for p, Initial residual = 0.053768, Final residual = 0.00038289, No Iterations 22
DICPCG:  Solving for p, Initial residual = 0.0065626, Final residual = 5.3144e-05, No Iterations 8
time step continuity errors : sum local = 4.5975e-08, global = 5.871e-09, cumulative = -1.2332e-07
PIMPLE: iteration 2
smoothSolver:  Solving for Ux, Initial residual = 0.030176, Final residual = 1.7074e-06, No Iterations 1
smoothSolver:  Solving for Uy, Initial residual = 0.044706, Final residual = 3.3616e-06, No Iterations 1
smoothSolver:  Solving for Uz, Initial residual = 0.04469, Final residual = 3.3574e-06, No Iterations 1
DICPCG:  Solving for p, Initial residual = 0.0085996, Final residual = 6.5649e-05, No Iterations 19
DICPCG:  Solving for p, Initial residual = 0.00099617, Final residual = 8.2923e-06, No Iterations 13
time step continuity errors : sum local = 7.0579e-09, global = 1.3458e-09, cumulative = -1.2198e-07
PIMPLE: iteration 3
smoothSolver:  Solving for Ux, Initial residual = 0.017023, Final residual = 4.3491e-10, No Iterations 2
smoothSolver:  Solving for Uy, Initial residual = 0.027328, Final residual = 9.2705e-10, No Iterations 2
smoothSolver:  Solving for Uz, Initial residual = 0.027338, Final residual = 9.2661e-10, No Iterations 2
DICPCG:  Solving for p, Initial residual = 0.012519, Final residual = 0.0001226, No Iterations 15
DICPCG:  Solving for p, Initial residual = 0.0010361, Final residual = 6.1592e-10, No Iterations 54
time step continuity errors : sum local = 7.3925e-13, global = -5.6032e-15, cumulative = -1.2198e-07
ExecutionTime = 2.31 s  ClockTime = 79 s

surfaceRegion PRESSURE_mantle write:
    none(mantle) of p = 0

surfaceRegion TRACTION_mantle write:
    none(mantle) of wallShearStress = (0 0 0)

I get past the save

Reading pointDisplacement

prev_runTime0.0000
GAMG:  Solving for cellDisplacementx, Initial residual = 0.022947, Final residual = 6.258e-08, No Iterations 5
GAMG:  Solving for cellDisplacementy, Initial residual = 0.075471, Final residual = 5.599e-07, No Iterations 5
GAMG:  Solving for cellDisplacementz, Initial residual = 0.075472, Final residual = 5.9735e-07, No Iterations 5
PIMPLE: iteration 1
smoothSolver:  Solving for Ux, Initial residual = 3.59e-05, Final residual = 1.4563e-09, No Iterations 1
smoothSolver:  Solving for Uy, Initial residual = 0.0001463, Final residual = 7.24e-09, No Iterations 1
smoothSolver:  Solving for Uz, Initial residual = 0.00014625, Final residual = 7.2237e-09, No Iterations 1
DICPCG:  Solving for p, Initial residual = 0.026814, Final residual = 0.00023802, No Iterations 17
DICPCG:  Solving for p, Initial residual = 0.0027634, Final residual = 2.6168e-05, No Iterations 17
time step continuity errors : sum local = 2.2051e-08, global = -3.7488e-09, cumulative = -1.2573e-07
PIMPLE: iteration 2
smoothSolver:  Solving for Ux, Initial residual = 0.010086, Final residual = 6.3004e-07, No Iterations 1
smoothSolver:  Solving for Uy, Initial residual = 0.019715, Final residual = 1.1211e-06, No Iterations 1
smoothSolver:  Solving for Uz, Initial residual = 0.019714, Final residual = 1.12e-06, No Iterations 1
DICPCG:  Solving for p, Initial residual = 0.004433, Final residual = 3.8094e-05, No Iterations 15
DICPCG:  Solving for p, Initial residual = 0.00042547, Final residual = 2.9829e-06, No Iterations 30
time step continuity errors : sum local = 2.4978e-09, global = -3.0344e-10, cumulative = -1.2603e-07
PIMPLE: iteration 3
smoothSolver:  Solving for Ux, Initial residual = 0.0057771, Final residual = 1.531e-10, No Iterations 2
smoothSolver:  Solving for Uy, Initial residual = 0.01243, Final residual = 3.11e-10, No Iterations 2
smoothSolver:  Solving for Uz, Initial residual = 0.012432, Final residual = 3.1062e-10, No Iterations 2
DICPCG:  Solving for p, Initial residual = 0.010885, Final residual = 9.1337e-05, No Iterations 12
DICPCG:  Solving for p, Initial residual = 0.00085414, Final residual = 6.0127e-10, No Iterations 54
time step continuity errors : sum local = 7.1284e-13, global = 1.4862e-14, cumulative = -1.2603e-07
ExecutionTime = 2.61 s  ClockTime = 89 s

surfaceRegion PRESSURE_mantle write:
    none(mantle) of p = 0

surfaceRegion TRACTION_mantle write:
    none(mantle) of wallShearStress = (0 0 0)

I get past the save

Reading pointDisplacement

prev_runTime0.0000
GAMG:  Solving for cellDisplacementx, Initial residual = 0.012295, Final residual = 7.7692e-08, No Iterations 6
GAMG:  Solving for cellDisplacementy, Initial residual = 0.024427, Final residual = 2.2158e-07, No Iterations 7
GAMG:  Solving for cellDisplacementz, Initial residual = 0.024427, Final residual = 9.8211e-08, No Iterations 7
PIMPLE: iteration 1
smoothSolver:  Solving for Ux, Initial residual = 2.1599e-05, Final residual = 7.1969e-10, No Iterations 1
smoothSolver:  Solving for Uy, Initial residual = 0.00011574, Final residual = 5.1639e-09, No Iterations 1
smoothSolver:  Solving for Uz, Initial residual = 0.00011574, Final residual = 5.1536e-09, No Iterations 1
DICPCG:  Solving for p, Initial residual = 0.016321, Final residual = 0.00016236, No Iterations 12
DICPCG:  Solving for p, Initial residual = 0.0014656, Final residual = 1.0964e-05, No Iterations 20
time step continuity errors : sum local = 9.1686e-09, global = -1.7204e-09, cumulative = -1.2775e-07
PIMPLE: iteration 2
smoothSolver:  Solving for Ux, Initial residual = 0.0034524, Final residual = 1.5298e-07, No Iterations 1
smoothSolver:  Solving for Uy, Initial residual = 0.011104, Final residual = 5.8529e-07, No Iterations 1
smoothSolver:  Solving for Uz, Initial residual = 0.011105, Final residual = 5.8465e-07, No Iterations 1
DICPCG:  Solving for p, Initial residual = 0.0029492, Final residual = 2.7017e-05, No Iterations 11
DICPCG:  Solving for p, Initial residual = 0.00024003, Final residual = 2.0286e-06, No Iterations 28
time step continuity errors : sum local = 1.6914e-09, global = -1.2189e-10, cumulative = -1.2787e-07
PIMPLE: iteration 3
smoothSolver:  Solving for Ux, Initial residual = 0.0020525, Final residual = 3.8155e-11, No Iterations 2
smoothSolver:  Solving for Uy, Initial residual = 0.0073198, Final residual = 1.8205e-10, No Iterations 2
smoothSolver:  Solving for Uz, Initial residual = 0.0073197, Final residual = 1.8192e-10, No Iterations 2
DICPCG:  Solving for p, Initial residual = 0.010417, Final residual = 8.8106e-05, No Iterations 10
DICPCG:  Solving for p, Initial residual = 0.00079159, Final residual = 6.7483e-10, No Iterations 54
time step continuity errors : sum local = 7.977e-13, global = -1.4544e-14, cumulative = -1.2787e-07
ExecutionTime = 2.91 s  ClockTime = 100 s

surfaceRegion PRESSURE_mantle write:
    none(mantle) of p = 0

surfaceRegion TRACTION_mantle write:
    none(mantle) of wallShearStress = (0 0 0)

I get past the save

Reading pointDisplacement

prev_runTime0.0000
GAMG:  Solving for cellDisplacementx, Initial residual = 0.0071782, Final residual = 7.0596e-08, No Iterations 4
GAMG:  Solving for cellDisplacementy, Initial residual = 0.0072586, Final residual = 5.3535e-08, No Iterations 5
GAMG:  Solving for cellDisplacementz, Initial residual = 0.0072599, Final residual = 6.2506e-08, No Iterations 5
PIMPLE: iteration 1
smoothSolver:  Solving for Ux, Initial residual = 1.6847e-05, Final residual = 4.2379e-10, No Iterations 1
smoothSolver:  Solving for Uy, Initial residual = 0.00010524, Final residual = 4.1695e-09, No Iterations 1
smoothSolver:  Solving for Uz, Initial residual = 0.00010526, Final residual = 4.1597e-09, No Iterations 1
DICPCG:  Solving for p, Initial residual = 0.013556, Final residual = 0.00010966, No Iterations 10
DICPCG:  Solving for p, Initial residual = 0.001069, Final residual = 8.7353e-06, No Iterations 21
time step continuity errors : sum local = 7.2842e-09, global = -1.3972e-09, cumulative = -1.2927e-07
PIMPLE: iteration 2
smoothSolver:  Solving for Ux, Initial residual = 0.0017154, Final residual = 6.522e-08, No Iterations 1
smoothSolver:  Solving for Uy, Initial residual = 0.0085457, Final residual = 4.0146e-07, No Iterations 1
smoothSolver:  Solving for Uz, Initial residual = 0.0085465, Final residual = 4.0085e-07, No Iterations 1
DICPCG:  Solving for p, Initial residual = 0.0025351, Final residual = 1.657e-05, No Iterations 9
DICPCG:  Solving for p, Initial residual = 0.00018332, Final residual = 1.7123e-06, No Iterations 25
time step continuity errors : sum local = 1.4255e-09, global = 3.2769e-11, cumulative = -1.2924e-07
PIMPLE: iteration 3
smoothSolver:  Solving for Ux, Initial residual = 0.0010762, Final residual = 5.8345e-08, No Iterations 1
smoothSolver:  Solving for Uy, Initial residual = 0.0057503, Final residual = 1.4187e-10, No Iterations 2
smoothSolver:  Solving for Uz, Initial residual = 0.0057508, Final residual = 1.4177e-10, No Iterations 2
DICPCG:  Solving for p, Initial residual = 0.010251, Final residual = 9.0158e-05, No Iterations 9
DICPCG:  Solving for p, Initial residual = 0.00077405, Final residual = 6.7666e-10, No Iterations 54
time step continuity errors : sum local = 7.9898e-13, global = -8.7575e-15, cumulative = -1.2924e-07
ExecutionTime = 3.23 s  ClockTime = 110 s

surfaceRegion PRESSURE_mantle write:
    none(mantle) of p = 0

surfaceRegion TRACTION_mantle write:
    none(mantle) of wallShearStress = (0 0 0)

I get past the save

Courant Number mean: 0.00025796 max: 0.0047853
0.0001

Time = 0.0002

Reading pointDisplacement

prev_runTime0.0001
GAMG:  Solving for cellDisplacementx, Initial residual = 0.26079, Final residual = 1.4099e-06, No Iterations 5
GAMG:  Solving for cellDisplacementy, Initial residual = 0.33143, Final residual = 1.2298e-06, No Iterations 6
GAMG:  Solving for cellDisplacementz, Initial residual = 0.33143, Final residual = 1.4573e-06, No Iterations 6
PIMPLE: iteration 1
smoothSolver:  Solving for Ux, Initial residual = 0.17994, Final residual = 5.144e-06, No Iterations 1
smoothSolver:  Solving for Uy, Initial residual = 0.25851, Final residual = 1.1679e-05, No Iterations 1
smoothSolver:  Solving for Uz, Initial residual = 0.25851, Final residual = 1.166e-05, No Iterations 1
DICPCG:  Solving for p, Initial residual = 0.078381, Final residual = 0.00049084, No Iterations 42
DICPCG:  Solving for p, Initial residual = 0.0090978, Final residual = 7.9383e-05, No Iterations 8
time step continuity errors : sum local = 5.9299e-08, global = 6.7132e-09, cumulative = -1.2252e-07
PIMPLE: iteration 2
smoothSolver:  Solving for Ux, Initial residual = 0.054344, Final residual = 3.7232e-06, No Iterations 1
smoothSolver:  Solving for Uy, Initial residual = 0.033572, Final residual = 1.8458e-06, No Iterations 1
smoothSolver:  Solving for Uz, Initial residual = 0.033577, Final residual = 1.8453e-06, No Iterations 1
DICPCG:  Solving for p, Initial residual = 0.033383, Final residual = 0.00020586, No Iterations 42
DICPCG:  Solving for p, Initial residual = 0.0039908, Final residual = 3.419e-05, No Iterations 8
time step continuity errors : sum local = 2.515e-08, global = 2.8395e-09, cumulative = -1.1968e-07
PIMPLE: iteration 3
smoothSolver:  Solving for Ux, Initial residual = 0.047921, Final residual = 1.7495e-09, No Iterations 2
smoothSolver:  Solving for Uy, Initial residual = 0.013363, Final residual = 3.8761e-10, No Iterations 2
smoothSolver:  Solving for Uz, Initial residual = 0.013366, Final residual = 3.8713e-10, No Iterations 2
DICPCG:  Solving for p, Initial residual = 0.01377, Final residual = 0.00013313, No Iterations 40
DICPCG:  Solving for p, Initial residual = 0.0012359, Final residual = 5.0276e-10, No Iterations 55
time step continuity errors : sum local = 5.2412e-13, global = 3.0431e-16, cumulative = -1.1968e-07
ExecutionTime = 3.54 s  ClockTime = 120 s

surfaceRegion PRESSURE_mantle write:
    none(mantle) of p = 0

surfaceRegion TRACTION_mantle write:
    none(mantle) of wallShearStress = (0 0 0)

I get past the save

Reading pointDisplacement

prev_runTime0.0001
GAMG:  Solving for cellDisplacementx, Initial residual = 0.33403, Final residual = 9.4895e-07, No Iterations 5
GAMG:  Solving for cellDisplacementy, Initial residual = 0.18756, Final residual = 3.7195e-07, No Iterations 6
GAMG:  Solving for cellDisplacementz, Initial residual = 0.18756, Final residual = 1.4503e-06, No Iterations 5
PIMPLE: iteration 1
smoothSolver:  Solving for Ux, Initial residual = 0.00032531, Final residual = 3.949e-09, No Iterations 1
smoothSolver:  Solving for Uy, Initial residual = 0.0020422, Final residual = 2.1003e-08, No Iterations 1
smoothSolver:  Solving for Uz, Initial residual = 0.0020423, Final residual = 2.0981e-08, No Iterations 1
DICPCG:  Solving for p, Initial residual = 0.11302, Final residual = 0.00071335, No Iterations 42
DICPCG:  Solving for p, Initial residual = 0.010795, Final residual = 8.9672e-05, No Iterations 8
time step continuity errors : sum local = 9.7473e-08, global = -1.0916e-08, cumulative = -1.306e-07
PIMPLE: iteration 2
smoothSolver:  Solving for Ux, Initial residual = 0.059794, Final residual = 2.4634e-06, No Iterations 1
smoothSolver:  Solving for Uy, Initial residual = 0.055937, Final residual = 3.8029e-06, No Iterations 1
smoothSolver:  Solving for Uz, Initial residual = 0.055933, Final residual = 3.7977e-06, No Iterations 1
DICPCG:  Solving for p, Initial residual = 0.018397, Final residual = 0.00014812, No Iterations 41
DICPCG:  Solving for p, Initial residual = 0.0020537, Final residual = 2.0002e-05, No Iterations 6
time step continuity errors : sum local = 1.7352e-08, global = -2.9336e-09, cumulative = -1.3353e-07
PIMPLE: iteration 3
smoothSolver:  Solving for Ux, Initial residual = 0.029752, Final residual = 5.2489e-10, No Iterations 2
smoothSolver:  Solving for Uy, Initial residual = 0.03152, Final residual = 1.1332e-09, No Iterations 2
smoothSolver:  Solving for Uz, Initial residual = 0.031533, Final residual = 1.1333e-09, No Iterations 2
DICPCG:  Solving for p, Initial residual = 0.019839, Final residual = 0.00013862, No Iterations 41
DICPCG:  Solving for p, Initial residual = 0.0018084, Final residual = 8.2981e-10, No Iterations 55
time step continuity errors : sum local = 9.9276e-13, global = 3.3452e-15, cumulative = -1.3353e-07
ExecutionTime = 3.84 s  ClockTime = 131 s

surfaceRegion PRESSURE_mantle write:
    none(mantle) of p = 0

surfaceRegion TRACTION_mantle write:
    none(mantle) of wallShearStress = (0 0 0)

I get past the save

Reading pointDisplacement

prev_runTime0.0001
GAMG:  Solving for cellDisplacementx, Initial residual = 0.05671, Final residual = 2.8679e-07, No Iterations 6
GAMG:  Solving for cellDisplacementy, Initial residual = 0.0090836, Final residual = 7.9709e-08, No Iterations 7
GAMG:  Solving for cellDisplacementz, Initial residual = 0.0090885, Final residual = 3.4458e-08, No Iterations 7
PIMPLE: iteration 1
smoothSolver:  Solving for Ux, Initial residual = 9.8327e-05, Final residual = 2.8198e-09, No Iterations 1
smoothSolver:  Solving for Uy, Initial residual = 0.00016319, Final residual = 8.0989e-09, No Iterations 1
smoothSolver:  Solving for Uz, Initial residual = 0.00016316, Final residual = 8.0891e-09, No Iterations 1
DICPCG:  Solving for p, Initial residual = 0.023071, Final residual = 0.00022627, No Iterations 19
DICPCG:  Solving for p, Initial residual = 0.00185, Final residual = 1.6815e-05, No Iterations 26
time step continuity errors : sum local = 1.4284e-08, global = -9.3334e-10, cumulative = -1.3447e-07
PIMPLE: iteration 2
smoothSolver:  Solving for Ux, Initial residual = 0.0016543, Final residual = 8.6053e-08, No Iterations 1
smoothSolver:  Solving for Uy, Initial residual = 0.0073403, Final residual = 4.5392e-07, No Iterations 1
smoothSolver:  Solving for Uz, Initial residual = 0.0073323, Final residual = 4.5229e-07, No Iterations 1
DICPCG:  Solving for p, Initial residual = 0.0044195, Final residual = 3.223e-05, No Iterations 18
DICPCG:  Solving for p, Initial residual = 0.00031732, Final residual = 2.8684e-06, No Iterations 24
time step continuity errors : sum local = 2.4298e-09, global = -3.1021e-10, cumulative = -1.3478e-07
PIMPLE: iteration 3
smoothSolver:  Solving for Ux, Initial residual = 0.0010054, Final residual = 7.8214e-08, No Iterations 1
smoothSolver:  Solving for Uy, Initial residual = 0.0049875, Final residual = 1.6739e-10, No Iterations 2
smoothSolver:  Solving for Uz, Initial residual = 0.0049801, Final residual = 1.6673e-10, No Iterations 2
DICPCG:  Solving for p, Initial residual = 0.01741, Final residual = 0.00016422, No Iterations 16
DICPCG:  Solving for p, Initial residual = 0.0012997, Final residual = 5.0276e-10, No Iterations 55
time step continuity errors : sum local = 6.0166e-13, global = -2.8488e-15, cumulative = -1.3478e-07
ExecutionTime = 4.15 s  ClockTime = 142 s

surfaceRegion PRESSURE_mantle write:
    none(mantle) of p = 0

surfaceRegion TRACTION_mantle write:
    none(mantle) of wallShearStress = (0 0 0)

I get past the save

Reading pointDisplacement

prev_runTime0.0001
GAMG:  Solving for cellDisplacementx, Initial residual = 0.0022044, Final residual = 4.7098e-09, No Iterations 6
GAMG:  Solving for cellDisplacementy, Initial residual = 0.0041516, Final residual = 3.0019e-08, No Iterations 5
GAMG:  Solving for cellDisplacementz, Initial residual = 0.0041512, Final residual = 2.4517e-08, No Iterations 5
PIMPLE: iteration 1
smoothSolver:  Solving for Ux, Initial residual = 2.0349e-05, Final residual = 4.8048e-10, No Iterations 1
smoothSolver:  Solving for Uy, Initial residual = 0.00011794, Final residual = 5.4483e-09, No Iterations 1
smoothSolver:  Solving for Uz, Initial residual = 0.00011793, Final residual = 5.4342e-09, No Iterations 1
DICPCG:  Solving for p, Initial residual = 0.022841, Final residual = 0.000199, No Iterations 15
DICPCG:  Solving for p, Initial residual = 0.0017381, Final residual = 1.5607e-05, No Iterations 34
time step continuity errors : sum local = 1.3231e-08, global = 4.9319e-10, cumulative = -1.3428e-07
PIMPLE: iteration 2
smoothSolver:  Solving for Ux, Initial residual = 0.0013353, Final residual = 7.1118e-08, No Iterations 1
smoothSolver:  Solving for Uy, Initial residual = 0.0073921, Final residual = 4.5789e-07, No Iterations 1
smoothSolver:  Solving for Uz, Initial residual = 0.0074045, Final residual = 4.5838e-07, No Iterations 1
DICPCG:  Solving for p, Initial residual = 0.0043645, Final residual = 2.8014e-05, No Iterations 8
DICPCG:  Solving for p, Initial residual = 0.00030282, Final residual = 2.8818e-06, No Iterations 29
time step continuity errors : sum local = 2.4356e-09, global = 4.637e-10, cumulative = -1.3382e-07
PIMPLE: iteration 3
smoothSolver:  Solving for Ux, Initial residual = 0.00084031, Final residual = 6.5261e-08, No Iterations 1
smoothSolver:  Solving for Uy, Initial residual = 0.0050227, Final residual = 1.7253e-10, No Iterations 2
smoothSolver:  Solving for Uz, Initial residual = 0.0050286, Final residual = 1.728e-10, No Iterations 2
DICPCG:  Solving for p, Initial residual = 0.017372, Final residual = 0.00014672, No Iterations 12
DICPCG:  Solving for p, Initial residual = 0.0012764, Final residual = 5.8709e-10, No Iterations 55
time step continuity errors : sum local = 7.0113e-13, global = 6.5758e-15, cumulative = -1.3382e-07
ExecutionTime = 4.45 s  ClockTime = 153 s

surfaceRegion PRESSURE_mantle write:
    none(mantle) of p = 0

surfaceRegion TRACTION_mantle write:
    none(mantle) of wallShearStress = (0 0 0)

I get past the save

Courant Number mean: 0.00049994 max: 0.0090898
0.0002

Time = 0.0003

Reading pointDisplacement

prev_runTime0.0002
GAMG:  Solving for cellDisplacementx, Initial residual = 0.21138, Final residual = 1.0731e-06, No Iterations 5
GAMG:  Solving for cellDisplacementy, Initial residual = 0.24532, Final residual = 1.1825e-06, No Iterations 6
GAMG:  Solving for cellDisplacementz, Initial residual = 0.24532, Final residual = 8.1561e-07, No Iterations 6
PIMPLE: iteration 1
smoothSolver:  Solving for Ux, Initial residual = 0.098223, Final residual = 3.4231e-06, No Iterations 1
smoothSolver:  Solving for Uy, Initial residual = 0.1503, Final residual = 1.0137e-05, No Iterations 1
smoothSolver:  Solving for Uz, Initial residual = 0.1503, Final residual = 1.0126e-05, No Iterations 1
DICPCG:  Solving for p, Initial residual = 0.069511, Final residual = 0.00042327, No Iterations 42
DICPCG:  Solving for p, Initial residual = 0.0082343, Final residual = 8.0438e-05, No Iterations 8
time step continuity errors : sum local = 6.1009e-08, global = 6.9235e-09, cumulative = -1.269e-07
PIMPLE: iteration 2
smoothSolver:  Solving for Ux, Initial residual = 0.029448, Final residual = 2.1408e-06, No Iterations 1
smoothSolver:  Solving for Uy, Initial residual = 0.022804, Final residual = 1.7507e-06, No Iterations 1
smoothSolver:  Solving for Uz, Initial residual = 0.022809, Final residual = 1.7508e-06, No Iterations 1
DICPCG:  Solving for p, Initial residual = 0.030258, Final residual = 0.00018466, No Iterations 42
DICPCG:  Solving for p, Initial residual = 0.0038769, Final residual = 3.5294e-05, No Iterations 8
time step continuity errors : sum local = 2.6361e-08, global = 2.98e-09, cumulative = -1.2392e-07
PIMPLE: iteration 3
smoothSolver:  Solving for Ux, Initial residual = 0.024282, Final residual = 9.3265e-10, No Iterations 2
smoothSolver:  Solving for Uy, Initial residual = 0.0046003, Final residual = 2.1864e-10, No Iterations 2
smoothSolver:  Solving for Uz, Initial residual = 0.0046006, Final residual = 2.18e-10, No Iterations 2
DICPCG:  Solving for p, Initial residual = 0.021338, Final residual = 0.00016569, No Iterations 40
DICPCG:  Solving for p, Initial residual = 0.0017237, Final residual = 6.6459e-10, No Iterations 55
time step continuity errors : sum local = 6.9756e-13, global = -1.9536e-16, cumulative = -1.2392e-07
ExecutionTime = 4.77 s  ClockTime = 164 s

surfaceRegion PRESSURE_mantle write:
    none(mantle) of p = 0

surfaceRegion TRACTION_mantle write:
    none(mantle) of wallShearStress = (0 0 0)

I get past the save

Reading pointDisplacement

prev_runTime0.0002
GAMG:  Solving for cellDisplacementx, Initial residual = 0.1308, Final residual = 4.391e-07, No Iterations 5
GAMG:  Solving for cellDisplacementy, Initial residual = 0.078861, Final residual = 1.5919e-07, No Iterations 6
GAMG:  Solving for cellDisplacementz, Initial residual = 0.07886, Final residual = 6.2711e-07, No Iterations 5
PIMPLE: iteration 1
smoothSolver:  Solving for Ux, Initial residual = 0.00026363, Final residual = 4.7037e-09, No Iterations 1
smoothSolver:  Solving for Uy, Initial residual = 0.0011291, Final residual = 2.2237e-08, No Iterations 1
smoothSolver:  Solving for Uz, Initial residual = 0.0011291, Final residual = 2.219e-08, No Iterations 1
DICPCG:  Solving for p, Initial residual = 0.10863, Final residual = 0.0006871, No Iterations 42
DICPCG:  Solving for p, Initial residual = 0.010561, Final residual = 8.398e-05, No Iterations 8
time step continuity errors : sum local = 9.0732e-08, global = -1.1363e-08, cumulative = -1.3528e-07
PIMPLE: iteration 2
smoothSolver:  Solving for Ux, Initial residual = 0.038572, Final residual = 1.7475e-06, No Iterations 1
smoothSolver:  Solving for Uy, Initial residual = 0.034692, Final residual = 3.0804e-06, No Iterations 1
smoothSolver:  Solving for Uz, Initial residual = 0.034687, Final residual = 3.0767e-06, No Iterations 1
DICPCG:  Solving for p, Initial residual = 0.018141, Final residual = 0.00014578, No Iterations 41
DICPCG:  Solving for p, Initial residual = 0.0020216, Final residual = 1.8121e-05, No Iterations 6
time step continuity errors : sum local = 1.5572e-08, global = -2.8044e-09, cumulative = -1.3808e-07
PIMPLE: iteration 3
smoothSolver:  Solving for Ux, Initial residual = 0.019973, Final residual = 3.969e-10, No Iterations 2
smoothSolver:  Solving for Uy, Initial residual = 0.020673, Final residual = 9.6535e-10, No Iterations 2
smoothSolver:  Solving for Uz, Initial residual = 0.020681, Final residual = 9.6535e-10, No Iterations 2
DICPCG:  Solving for p, Initial residual = 0.025221, Final residual = 0.00015201, No Iterations 41
DICPCG:  Solving for p, Initial residual = 0.0021368, Final residual = 9.1197e-10, No Iterations 55
time step continuity errors : sum local = 1.0865e-12, global = 1.081e-14, cumulative = -1.3808e-07
ExecutionTime = 5.08 s  ClockTime = 175 s

surfaceRegion PRESSURE_mantle write:
    none(mantle) of p = 0

surfaceRegion TRACTION_mantle write:
    none(mantle) of wallShearStress = (0 0 0)

I get past the save

Reading pointDisplacement

prev_runTime0.0002
GAMG:  Solving for cellDisplacementx, Initial residual = 0.0047163, Final residual = 4.7018e-08, No Iterations 7
GAMG:  Solving for cellDisplacementy, Initial residual = 0.003625, Final residual = 1.8155e-08, No Iterations 8
GAMG:  Solving for cellDisplacementz, Initial residual = 0.0036261, Final residual = 1.2842e-08, No Iterations 7
PIMPLE: iteration 1
smoothSolver:  Solving for Ux, Initial residual = 8.0985e-05, Final residual = 2.3932e-09, No Iterations 1
smoothSolver:  Solving for Uy, Initial residual = 0.0001539, Final residual = 8.6904e-09, No Iterations 1
smoothSolver:  Solving for Uz, Initial residual = 0.00015387, Final residual = 8.6828e-09, No Iterations 1
DICPCG:  Solving for p, Initial residual = 0.029129, Final residual = 0.00027834, No Iterations 27
DICPCG:  Solving for p, Initial residual = 0.0021308, Final residual = 1.9775e-05, No Iterations 30
time step continuity errors : sum local = 1.6796e-08, global = -1.4948e-09, cumulative = -1.3958e-07
PIMPLE: iteration 2
smoothSolver:  Solving for Ux, Initial residual = 0.00093615, Final residual = 5.4304e-08, No Iterations 1
smoothSolver:  Solving for Uy, Initial residual = 0.0061936, Final residual = 4.6435e-07, No Iterations 1
smoothSolver:  Solving for Uz, Initial residual = 0.006187, Final residual = 4.6285e-07, No Iterations 1
DICPCG:  Solving for p, Initial residual = 0.0056595, Final residual = 5.5252e-05, No Iterations 6
DICPCG:  Solving for p, Initial residual = 0.00038404, Final residual = 3.2685e-06, No Iterations 37
time step continuity errors : sum local = 2.766e-09, global = 1.9266e-10, cumulative = -1.3939e-07
PIMPLE: iteration 3
smoothSolver:  Solving for Ux, Initial residual = 0.00059474, Final residual = 5.2638e-08, No Iterations 1
smoothSolver:  Solving for Uy, Initial residual = 0.0042589, Final residual = 1.764e-10, No Iterations 2
smoothSolver:  Solving for Uz, Initial residual = 0.0042569, Final residual = 1.7606e-10, No Iterations 2
DICPCG:  Solving for p, Initial residual = 0.023019, Final residual = 0.00022812, No Iterations 15
DICPCG:  Solving for p, Initial residual = 0.0017049, Final residual = 5.9112e-10, No Iterations 55
time step continuity errors : sum local = 7.0484e-13, global = -5.1344e-16, cumulative = -1.3939e-07
ExecutionTime = 5.38 s  ClockTime = 185 s

surfaceRegion PRESSURE_mantle write:
    none(mantle) of p = 0

surfaceRegion TRACTION_mantle write:
    none(mantle) of wallShearStress = (0 0 0)

I get past the save

Courant Number mean: 0.00073419 max: 0.012894
0.0003

Time = 0.0004

Reading pointDisplacement

prev_runTime0.0003
GAMG:  Solving for cellDisplacementx, Initial residual = 0.16973, Final residual = 4.5953e-07, No Iterations 5
GAMG:  Solving for cellDisplacementy, Initial residual = 0.19319, Final residual = 4.3626e-07, No Iterations 6
GAMG:  Solving for cellDisplacementz, Initial residual = 0.19319, Final residual = 1.5909e-06, No Iterations 5
PIMPLE: iteration 1
smoothSolver:  Solving for Ux, Initial residual = 0.067806, Final residual = 2.8465e-06, No Iterations 1
smoothSolver:  Solving for Uy, Initial residual = 0.10419, Final residual = 9.2573e-06, No Iterations 1
smoothSolver:  Solving for Uz, Initial residual = 0.10418, Final residual = 9.2486e-06, No Iterations 1
DICPCG:  Solving for p, Initial residual = 0.062242, Final residual = 0.00038259, No Iterations 42
DICPCG:  Solving for p, Initial residual = 0.0072578, Final residual = 6.5375e-05, No Iterations 9
time step continuity errors : sum local = 5.0087e-08, global = 5.895e-09, cumulative = -1.3349e-07
PIMPLE: iteration 2
smoothSolver:  Solving for Ux, Initial residual = 0.020182, Final residual = 1.5339e-06, No Iterations 1
smoothSolver:  Solving for Uy, Initial residual = 0.017799, Final residual = 1.6583e-06, No Iterations 1
smoothSolver:  Solving for Uz, Initial residual = 0.0178, Final residual = 1.658e-06, No Iterations 1
DICPCG:  Solving for p, Initial residual = 0.027344, Final residual = 0.00017119, No Iterations 42
DICPCG:  Solving for p, Initial residual = 0.0036346, Final residual = 3.3171e-05, No Iterations 8
time step continuity errors : sum local = 2.5051e-08, global = 3.0433e-09, cumulative = -1.3045e-07
PIMPLE: iteration 3
smoothSolver:  Solving for Ux, Initial residual = 0.016108, Final residual = 6.3776e-10, No Iterations 2
smoothSolver:  Solving for Uy, Initial residual = 0.0027509, Final residual = 1.9311e-10, No Iterations 2
smoothSolver:  Solving for Uz, Initial residual = 0.0027504, Final residual = 1.9236e-10, No Iterations 2
DICPCG:  Solving for p, Initial residual = 0.027178, Final residual = 0.0001892, No Iterations 40
DICPCG:  Solving for p, Initial residual = 0.0020674, Final residual = 7.5545e-10, No Iterations 55
time step continuity errors : sum local = 7.9549e-13, global = -2.0044e-16, cumulative = -1.3045e-07
ExecutionTime = 5.69 s  ClockTime = 196 s

surfaceRegion PRESSURE_mantle write:
    none(mantle) of p = 0

surfaceRegion TRACTION_mantle write:
    none(mantle) of wallShearStress = (0 0 0)

I get past the save

Reading pointDisplacement

prev_runTime0.0003
GAMG:  Solving for cellDisplacementx, Initial residual = 0.065732, Final residual = 2.0487e-07, No Iterations 5
GAMG:  Solving for cellDisplacementy, Initial residual = 0.042848, Final residual = 9.534e-08, No Iterations 6
GAMG:  Solving for cellDisplacementz, Initial residual = 0.04285, Final residual = 3.453e-07, No Iterations 5
PIMPLE: iteration 1
smoothSolver:  Solving for Ux, Initial residual = 0.0002042, Final residual = 5.3626e-09, No Iterations 1
smoothSolver:  Solving for Uy, Initial residual = 0.00075271, Final residual = 2.6659e-08, No Iterations 1
smoothSolver:  Solving for Uz, Initial residual = 0.00075282, Final residual = 2.6614e-08, No Iterations 1
DICPCG:  Solving for p, Initial residual = 0.10534, Final residual = 0.00060741, No Iterations 42
DICPCG:  Solving for p, Initial residual = 0.010207, Final residual = 9.9112e-05, No Iterations 7
time step continuity errors : sum local = 1.0579e-07, global = -1.896e-08, cumulative = -1.4941e-07
PIMPLE: iteration 2
smoothSolver:  Solving for Ux, Initial residual = 0.028119, Final residual = 1.4307e-06, No Iterations 1
smoothSolver:  Solving for Uy, Initial residual = 0.024774, Final residual = 2.7254e-06, No Iterations 1
smoothSolver:  Solving for Uz, Initial residual = 0.024774, Final residual = 2.723e-06, No Iterations 1
DICPCG:  Solving for p, Initial residual = 0.018051, Final residual = 0.00012868, No Iterations 41
DICPCG:  Solving for p, Initial residual = 0.0019524, Final residual = 1.6029e-05, No Iterations 6
time step continuity errors : sum local = 1.3609e-08, global = -2.6459e-09, cumulative = -1.5205e-07
PIMPLE: iteration 3
smoothSolver:  Solving for Ux, Initial residual = 0.014847, Final residual = 3.4203e-10, No Iterations 2
smoothSolver:  Solving for Uy, Initial residual = 0.015204, Final residual = 8.8901e-10, No Iterations 2
smoothSolver:  Solving for Uz, Initial residual = 0.015211, Final residual = 8.8905e-10, No Iterations 2
DICPCG:  Solving for p, Initial residual = 0.029538, Final residual = 0.0002872, No Iterations 40
DICPCG:  Solving for p, Initial residual = 0.0024311, Final residual = 5.4552e-10, No Iterations 56
time step continuity errors : sum local = 6.4493e-13, global = -4.4472e-15, cumulative = -1.5205e-07
ExecutionTime = 5.99 s  ClockTime = 207 s

surfaceRegion PRESSURE_mantle write:
    none(mantle) of p = 0

surfaceRegion TRACTION_mantle write:
    none(mantle) of wallShearStress = (0 0 0)

I get past the save

Courant Number mean: 0.00097119 max: 0.016216
0.0004

Time = 0.0005

Reading pointDisplacement

prev_runTime0.0004
GAMG:  Solving for cellDisplacementx, Initial residual = 0.14123, Final residual = 1.0763e-06, No Iterations 5
GAMG:  Solving for cellDisplacementy, Initial residual = 0.15817, Final residual = 6.8998e-07, No Iterations 6
GAMG:  Solving for cellDisplacementz, Initial residual = 0.15817, Final residual = 8.1897e-07, No Iterations 6
PIMPLE: iteration 1
smoothSolver:  Solving for Ux, Initial residual = 0.051785, Final residual = 2.7397e-06, No Iterations 1
smoothSolver:  Solving for Uy, Initial residual = 0.077565, Final residual = 8.5205e-06, No Iterations 1
smoothSolver:  Solving for Uz, Initial residual = 0.077568, Final residual = 8.5155e-06, No Iterations 1
DICPCG:  Solving for p, Initial residual = 0.058761, Final residual = 0.00031407, No Iterations 42
DICPCG:  Solving for p, Initial residual = 0.0062966, Final residual = 6.148e-05, No Iterations 9
time step continuity errors : sum local = 4.7396e-08, global = 6.2769e-09, cumulative = -1.4578e-07
PIMPLE: iteration 2
smoothSolver:  Solving for Ux, Initial residual = 0.015409, Final residual = 1.24e-06, No Iterations 1
smoothSolver:  Solving for Uy, Initial residual = 0.014646, Final residual = 1.5642e-06, No Iterations 1
smoothSolver:  Solving for Uz, Initial residual = 0.014651, Final residual = 1.5643e-06, No Iterations 1
DICPCG:  Solving for p, Initial residual = 0.024515, Final residual = 0.00014409, No Iterations 42
DICPCG:  Solving for p, Initial residual = 0.003342, Final residual = 3.1274e-05, No Iterations 8
time step continuity errors : sum local = 2.3776e-08, global = 3.2248e-09, cumulative = -1.4255e-07
PIMPLE: iteration 3
smoothSolver:  Solving for Ux, Initial residual = 0.011885, Final residual = 4.7731e-10, No Iterations 2
smoothSolver:  Solving for Uy, Initial residual = 0.0024247, Final residual = 1.8542e-10, No Iterations 2
smoothSolver:  Solving for Uz, Initial residual = 0.0024255, Final residual = 1.8465e-10, No Iterations 2
DICPCG:  Solving for p, Initial residual = 0.031713, Final residual = 0.00020656, No Iterations 40
DICPCG:  Solving for p, Initial residual = 0.0023332, Final residual = 8.4066e-10, No Iterations 55
time step continuity errors : sum local = 8.8506e-13, global = -1.0627e-15, cumulative = -1.4255e-07
ExecutionTime = 6.31 s  ClockTime = 217 s

surfaceRegion PRESSURE_mantle write:
    none(mantle) of p = 0

surfaceRegion TRACTION_mantle write:
    none(mantle) of wallShearStress = (0 0 0)

I get past the save

Reading pointDisplacement

prev_runTime0.0004
GAMG:  Solving for cellDisplacementx, Initial residual = 0.032767, Final residual = 1.4794e-07, No Iterations 6
GAMG:  Solving for cellDisplacementy, Initial residual = 0.026359, Final residual = 2.2489e-07, No Iterations 6
GAMG:  Solving for cellDisplacementz, Initial residual = 0.026368, Final residual = 2.069e-07, No Iterations 6
PIMPLE: iteration 1
smoothSolver:  Solving for Ux, Initial residual = 0.00014857, Final residual = 6.1704e-09, No Iterations 1
smoothSolver:  Solving for Uy, Initial residual = 0.00051789, Final residual = 3.1571e-08, No Iterations 1
smoothSolver:  Solving for Uz, Initial residual = 0.00051775, Final residual = 3.1546e-08, No Iterations 1
DICPCG:  Solving for p, Initial residual = 0.10179, Final residual = 0.00098157, No Iterations 41
DICPCG:  Solving for p, Initial residual = 0.010066, Final residual = 9.7228e-05, No Iterations 7
time step continuity errors : sum local = 1.0167e-07, global = -1.8554e-08, cumulative = -1.6111e-07
PIMPLE: iteration 2
smoothSolver:  Solving for Ux, Initial residual = 0.021964, Final residual = 1.3126e-06, No Iterations 1
smoothSolver:  Solving for Uy, Initial residual = 0.018872, Final residual = 2.5957e-06, No Iterations 1
smoothSolver:  Solving for Uz, Initial residual = 0.018886, Final residual = 2.5967e-06, No Iterations 1
DICPCG:  Solving for p, Initial residual = 0.01792, Final residual = 0.0001748, No Iterations 40
DICPCG:  Solving for p, Initial residual = 0.0019077, Final residual = 1.6361e-05, No Iterations 7
time step continuity errors : sum local = 1.3788e-08, global = -1.3026e-09, cumulative = -1.6241e-07
PIMPLE: iteration 3
smoothSolver:  Solving for Ux, Initial residual = 0.011708, Final residual = 3.2842e-10, No Iterations 2
smoothSolver:  Solving for Uy, Initial residual = 0.011824, Final residual = 8.8831e-10, No Iterations 2
smoothSolver:  Solving for Uz, Initial residual = 0.011833, Final residual = 8.8884e-10, No Iterations 2
DICPCG:  Solving for p, Initial residual = 0.033057, Final residual = 0.00028436, No Iterations 40
DICPCG:  Solving for p, Initial residual = 0.0025826, Final residual = 5.8651e-10, No Iterations 56
time step continuity errors : sum local = 6.86e-13, global = -3.7268e-15, cumulative = -1.6241e-07
ExecutionTime = 6.62 s  ClockTime = 228 s

surfaceRegion PRESSURE_mantle write:
    none(mantle) of p = 0

surfaceRegion TRACTION_mantle write:
    none(mantle) of wallShearStress = (0 0 0)

I get past the save

Reading pointDisplacement

prev_runTime0.0004
GAMG:  Solving for cellDisplacementx, Initial residual = 0.00083799, Final residual = 4.5854e-09, No Iterations 9
GAMG:  Solving for cellDisplacementy, Initial residual = 0.0018043, Final residual = 1.0178e-08, No Iterations 8
GAMG:  Solving for cellDisplacementz, Initial residual = 0.0017971, Final residual = 9.1848e-09, No Iterations 7
PIMPLE: iteration 1
smoothSolver:  Solving for Ux, Initial residual = 6.6464e-05, Final residual = 2.2247e-09, No Iterations 1
smoothSolver:  Solving for Uy, Initial residual = 0.00014875, Final residual = 1.2003e-08, No Iterations 1
smoothSolver:  Solving for Uz, Initial residual = 0.00014872, Final residual = 1.1991e-08, No Iterations 1
DICPCG:  Solving for p, Initial residual = 0.040092, Final residual = 0.00038562, No Iterations 31
DICPCG:  Solving for p, Initial residual = 0.0028329, Final residual = 2.3254e-05, No Iterations 34
time step continuity errors : sum local = 1.9488e-08, global = -3.4144e-10, cumulative = -1.6275e-07
PIMPLE: iteration 2
smoothSolver:  Solving for Ux, Initial residual = 0.00077257, Final residual = 4.6447e-08, No Iterations 1
smoothSolver:  Solving for Uy, Initial residual = 0.0052642, Final residual = 4.9041e-07, No Iterations 1
smoothSolver:  Solving for Uz, Initial residual = 0.0051768, Final residual = 4.8138e-07, No Iterations 1
DICPCG:  Solving for p, Initial residual = 0.0079241, Final residual = 6.7677e-05, No Iterations 8
DICPCG:  Solving for p, Initial residual = 0.00051246, Final residual = 3.4595e-06, No Iterations 37
time step continuity errors : sum local = 2.8826e-09, global = 1.946e-10, cumulative = -1.6256e-07
PIMPLE: iteration 3
smoothSolver:  Solving for Ux, Initial residual = 0.00048555, Final residual = 4.5831e-08, No Iterations 1
smoothSolver:  Solving for Uy, Initial residual = 0.0036435, Final residual = 1.8521e-10, No Iterations 2
smoothSolver:  Solving for Uz, Initial residual = 0.0035963, Final residual = 1.8207e-10, No Iterations 2
DICPCG:  Solving for p, Initial residual = 0.031414, Final residual = 0.00030282, No Iterations 21
DICPCG:  Solving for p, Initial residual = 0.0022405, Final residual = 9.5919e-10, No Iterations 55
time step continuity errors : sum local = 1.118e-12, global = -2.0348e-15, cumulative = -1.6256e-07
ExecutionTime = 6.96 s  ClockTime = 240 s

surfaceRegion PRESSURE_mantle write:
    none(mantle) of p = 0

surfaceRegion TRACTION_mantle write:
    none(mantle) of wallShearStress = (0 0 0)

I get past the save

Courant Number mean: 0.0011995 max: 0.019067
0.0005

Time = 0.0006

Reading pointDisplacement

prev_runTime0.0005
GAMG:  Solving for cellDisplacementx, Initial residual = 0.11648, Final residual = 4.0476e-07, No Iterations 5
GAMG:  Solving for cellDisplacementy, Initial residual = 0.13253, Final residual = 3.1891e-07, No Iterations 6
GAMG:  Solving for cellDisplacementz, Initial residual = 0.13253, Final residual = 1.2356e-06, No Iterations 5
PIMPLE: iteration 1
smoothSolver:  Solving for Ux, Initial residual = 0.042092, Final residual = 2.9356e-06, No Iterations 1
smoothSolver:  Solving for Uy, Initial residual = 0.059786, Final residual = 8.3523e-06, No Iterations 1
smoothSolver:  Solving for Uz, Initial residual = 0.05977, Final residual = 8.3494e-06, No Iterations 1
DICPCG:  Solving for p, Initial residual = 0.05598, Final residual = 0.00043174, No Iterations 41
DICPCG:  Solving for p, Initial residual = 0.0054934, Final residual = 4.7913e-05, No Iterations 10
time step continuity errors : sum local = 3.7071e-08, global = 6.8381e-09, cumulative = -1.5572e-07
PIMPLE: iteration 2
smoothSolver:  Solving for Ux, Initial residual = 0.012518, Final residual = 1.098e-06, No Iterations 1
smoothSolver:  Solving for Uy, Initial residual = 0.012404, Final residual = 1.5604e-06, No Iterations 1
smoothSolver:  Solving for Uz, Initial residual = 0.012408, Final residual = 1.5606e-06, No Iterations 1
DICPCG:  Solving for p, Initial residual = 0.021386, Final residual = 0.00021368, No Iterations 41
DICPCG:  Solving for p, Initial residual = 0.003066, Final residual = 2.7925e-05, No Iterations 9
time step continuity errors : sum local = 2.1314e-08, global = 3.1691e-09, cumulative = -1.5255e-07
PIMPLE: iteration 3
smoothSolver:  Solving for Ux, Initial residual = 0.0093633, Final residual = 3.9062e-10, No Iterations 2
smoothSolver:  Solving for Uy, Initial residual = 0.002374, Final residual = 1.8553e-10, No Iterations 2
smoothSolver:  Solving for Uz, Initial residual = 0.0023704, Final residual = 1.8457e-10, No Iterations 2
DICPCG:  Solving for p, Initial residual = 0.035212, Final residual = 0.00033115, No Iterations 39
DICPCG:  Solving for p, Initial residual = 0.0025985, Final residual = 8.9585e-10, No Iterations 55
time step continuity errors : sum local = 9.4161e-13, global = -3.9151e-15, cumulative = -1.5255e-07
ExecutionTime = 7.27 s  ClockTime = 250 s

surfaceRegion PRESSURE_mantle write:
    none(mantle) of p = 0

surfaceRegion TRACTION_mantle write:
    none(mantle) of wallShearStress = (0 0 0)

I get past the save

Reading pointDisplacement

prev_runTime0.0005
GAMG:  Solving for cellDisplacementx, Initial residual = 0.018348, Final residual = 8.6993e-08, No Iterations 6
GAMG:  Solving for cellDisplacementy, Initial residual = 0.016663, Final residual = 1.52e-07, No Iterations 6
GAMG:  Solving for cellDisplacementz, Initial residual = 0.016618, Final residual = 1.1705e-07, No Iterations 6
PIMPLE: iteration 1
smoothSolver:  Solving for Ux, Initial residual = 0.00010025, Final residual = 7.4643e-09, No Iterations 1
smoothSolver:  Solving for Uy, Initial residual = 0.00035478, Final residual = 4.0812e-08, No Iterations 1
smoothSolver:  Solving for Uz, Initial residual = 0.00035502, Final residual = 4.0805e-08, No Iterations 1
DICPCG:  Solving for p, Initial residual = 0.094596, Final residual = 0.00071915, No Iterations 41
DICPCG:  Solving for p, Initial residual = 0.0095136, Final residual = 8.8951e-05, No Iterations 6
time step continuity errors : sum local = 9.034e-08, global = -2.5648e-08, cumulative = -1.782e-07
PIMPLE: iteration 2
smoothSolver:  Solving for Ux, Initial residual = 0.017921, Final residual = 1.298e-06, No Iterations 1
smoothSolver:  Solving for Uy, Initial residual = 0.015299, Final residual = 2.7322e-06, No Iterations 1
smoothSolver:  Solving for Uz, Initial residual = 0.014958, Final residual = 2.7094e-06, No Iterations 1
DICPCG:  Solving for p, Initial residual = 0.017222, Final residual = 0.00012881, No Iterations 40
DICPCG:  Solving for p, Initial residual = 0.0017776, Final residual = 1.4349e-05, No Iterations 6
time step continuity errors : sum local = 1.1906e-08, global = -1.8624e-09, cumulative = -1.8006e-07
PIMPLE: iteration 3
smoothSolver:  Solving for Ux, Initial residual = 0.0096157, Final residual = 3.4858e-10, No Iterations 2
smoothSolver:  Solving for Uy, Initial residual = 0.0096688, Final residual = 9.9613e-10, No Iterations 2
smoothSolver:  Solving for Uz, Initial residual = 0.0095068, Final residual = 9.9159e-10, No Iterations 2
DICPCG:  Solving for p, Initial residual = 0.035653, Final residual = 0.00027114, No Iterations 40
DICPCG:  Solving for p, Initial residual = 0.0026985, Final residual = 7.0158e-10, No Iterations 56
time step continuity errors : sum local = 8.061e-13, global = 6.3758e-16, cumulative = -1.8006e-07
ExecutionTime = 7.58 s  ClockTime = 261 s

surfaceRegion PRESSURE_mantle write:
    none(mantle) of p = 0

surfaceRegion TRACTION_mantle write:
    none(mantle) of wallShearStress = (0 0 0)

I get past the save

Reading pointDisplacement

prev_runTime0.0005
GAMG:  Solving for cellDisplacementx, Initial residual = 0.0018451, Final residual = 1.3148e-08, No Iterations 5
GAMG:  Solving for cellDisplacementy, Initial residual = 0.0013754, Final residual = 4.9809e-09, No Iterations 6
GAMG:  Solving for cellDisplacementz, Initial residual = 0.001062, Final residual = 4.2628e-09, No Iterations 6
PIMPLE: iteration 1
smoothSolver:  Solving for Ux, Initial residual = 5.9925e-05, Final residual = 2.4202e-09, No Iterations 1
smoothSolver:  Solving for Uy, Initial residual = 0.0001447, Final residual = 1.5326e-08, No Iterations 1
smoothSolver:  Solving for Uz, Initial residual = 0.00014489, Final residual = 1.5318e-08, No Iterations 1
DICPCG:  Solving for p, Initial residual = 0.043042, Final residual = 0.00039641, No Iterations 31
DICPCG:  Solving for p, Initial residual = 0.0033787, Final residual = 3.009e-05, No Iterations 33
time step continuity errors : sum local = 2.4979e-08, global = 1.6053e-09, cumulative = -1.7845e-07
PIMPLE: iteration 2
smoothSolver:  Solving for Ux, Initial residual = 0.00062706, Final residual = 4.4869e-08, No Iterations 1
smoothSolver:  Solving for Uy, Initial residual = 0.0062731, Final residual = 6.9243e-07, No Iterations 1
smoothSolver:  Solving for Uz, Initial residual = 0.005092, Final residual = 5.7412e-07, No Iterations 1
DICPCG:  Solving for p, Initial residual = 0.0086328, Final residual = 8.3421e-05, No Iterations 8
DICPCG:  Solving for p, Initial residual = 0.0005866, Final residual = 4.1495e-06, No Iterations 37
time step continuity errors : sum local = 3.4226e-09, global = 1.8068e-10, cumulative = -1.7827e-07
PIMPLE: iteration 3
smoothSolver:  Solving for Ux, Initial residual = 0.000393, Final residual = 4.1909e-08, No Iterations 1
smoothSolver:  Solving for Uy, Initial residual = 0.0041308, Final residual = 2.5793e-10, No Iterations 2
smoothSolver:  Solving for Uz, Initial residual = 0.0034908, Final residual = 2.224e-10, No Iterations 2
DICPCG:  Solving for p, Initial residual = 0.034309, Final residual = 0.00032395, No Iterations 25
DICPCG:  Solving for p, Initial residual = 0.0024129, Final residual = 5.6438e-10, No Iterations 55
time step continuity errors : sum local = 6.4836e-13, global = 2.21e-15, cumulative = -1.7827e-07
ExecutionTime = 7.91 s  ClockTime = 272 s

surfaceRegion PRESSURE_mantle write:
    none(mantle) of p = 0

surfaceRegion TRACTION_mantle write:
    none(mantle) of wallShearStress = (0 0 0)

I get past the save

Reading pointDisplacement

prev_runTime0.0005
GAMG:  Solving for cellDisplacementx, Initial residual = 0.00052696, Final residual = 1.5774e-09, No Iterations 5
GAMG:  Solving for cellDisplacementy, Initial residual = 0.00051034, Final residual = 1.4482e-09, No Iterations 6
GAMG:  Solving for cellDisplacementz, Initial residual = 0.00036186, Final residual = 1.135e-09, No Iterations 6
PIMPLE: iteration 1
smoothSolver:  Solving for Ux, Initial residual = 2.2454e-05, Final residual = 1.0256e-09, No Iterations 1
smoothSolver:  Solving for Uy, Initial residual = 0.00013459, Final residual = 1.3189e-08, No Iterations 1
smoothSolver:  Solving for Uz, Initial residual = 0.00013395, Final residual = 1.3101e-08, No Iterations 1
DICPCG:  Solving for p, Initial residual = 0.042378, Final residual = 0.00036933, No Iterations 31
DICPCG:  Solving for p, Initial residual = 0.0030591, Final residual = 2.9423e-05, No Iterations 33
time step continuity errors : sum local = 2.44e-08, global = 1.7299e-09, cumulative = -1.7654e-07
PIMPLE: iteration 2
smoothSolver:  Solving for Ux, Initial residual = 0.00060022, Final residual = 4.414e-08, No Iterations 1
smoothSolver:  Solving for Uy, Initial residual = 0.0052865, Final residual = 5.9417e-07, No Iterations 1
smoothSolver:  Solving for Uz, Initial residual = 0.0047341, Final residual = 5.4698e-07, No Iterations 1
DICPCG:  Solving for p, Initial residual = 0.0085465, Final residual = 6.3295e-05, No Iterations 8
DICPCG:  Solving for p, Initial residual = 0.0005469, Final residual = 4.1229e-06, No Iterations 37
time step continuity errors : sum local = 3.3977e-09, global = 2.0334e-10, cumulative = -1.7634e-07
PIMPLE: iteration 3
smoothSolver:  Solving for Ux, Initial residual = 0.00037543, Final residual = 4.0611e-08, No Iterations 1
smoothSolver:  Solving for Uy, Initial residual = 0.0035999, Final residual = 2.2882e-10, No Iterations 2
smoothSolver:  Solving for Uz, Initial residual = 0.0032924, Final residual = 2.1543e-10, No Iterations 2
DICPCG:  Solving for p, Initial residual = 0.034287, Final residual = 0.00031454, No Iterations 25
DICPCG:  Solving for p, Initial residual = 0.0024035, Final residual = 7.2091e-10, No Iterations 55
time step continuity errors : sum local = 8.2759e-13, global = 1.0576e-14, cumulative = -1.7634e-07
ExecutionTime = 8.25 s  ClockTime = 284 s

surfaceRegion PRESSURE_mantle write:
    none(mantle) of p = 0

surfaceRegion TRACTION_mantle write:
    none(mantle) of wallShearStress = (0 0 0)

I get past the save

Courant Number mean: 0.0014383 max: 0.021475
0.0006

Time = 0.0007

Reading pointDisplacement

prev_runTime0.0006
GAMG:  Solving for cellDisplacementx, Initial residual = 0.09428, Final residual = 4.1207e-07, No Iterations 5
GAMG:  Solving for cellDisplacementy, Initial residual = 0.11344, Final residual = 3.5048e-07, No Iterations 6
GAMG:  Solving for cellDisplacementz, Initial residual = 0.11343, Final residual = 2.1351e-07, No Iterations 6
PIMPLE: iteration 1
smoothSolver:  Solving for Ux, Initial residual = 0.035581, Final residual = 3.3697e-06, No Iterations 1
smoothSolver:  Solving for Uy, Initial residual = 0.047886, Final residual = 8.7958e-06, No Iterations 1
smoothSolver:  Solving for Uz, Initial residual = 0.047499, Final residual = 8.77e-06, No Iterations 1
DICPCG:  Solving for p, Initial residual = 0.05626, Final residual = 0.00054347, No Iterations 40
DICPCG:  Solving for p, Initial residual = 0.0048405, Final residual = 3.8194e-05, No Iterations 12
time step continuity errors : sum local = 2.9581e-08, global = 5.1924e-09, cumulative = -1.7115e-07
PIMPLE: iteration 2
smoothSolver:  Solving for Ux, Initial residual = 0.01058, Final residual = 1.0364e-06, No Iterations 1
smoothSolver:  Solving for Uy, Initial residual = 0.010772, Final residual = 1.679e-06, No Iterations 1
smoothSolver:  Solving for Uz, Initial residual = 0.010747, Final residual = 1.6762e-06, No Iterations 1
DICPCG:  Solving for p, Initial residual = 0.019387, Final residual = 0.00013688, No Iterations 41
DICPCG:  Solving for p, Initial residual = 0.002695, Final residual = 2.5974e-05, No Iterations 9
time step continuity errors : sum local = 1.985e-08, global = 3.3026e-09, cumulative = -1.6784e-07
PIMPLE: iteration 3
smoothSolver:  Solving for Ux, Initial residual = 0.0076654, Final residual = 3.4535e-10, No Iterations 2
smoothSolver:  Solving for Uy, Initial residual = 0.0024546, Final residual = 2.0049e-10, No Iterations 2
smoothSolver:  Solving for Uz, Initial residual = 0.0024172, Final residual = 1.975e-10, No Iterations 2
DICPCG:  Solving for p, Initial residual = 0.037787, Final residual = 0.00033687, No Iterations 39
DICPCG:  Solving for p, Initial residual = 0.0027238, Final residual = 9.8313e-10, No Iterations 55
time step continuity errors : sum local = 1.0302e-12, global = -3.5573e-15, cumulative = -1.6784e-07
ExecutionTime = 8.58 s  ClockTime = 294 s

surfaceRegion PRESSURE_mantle write:
    none(mantle) of p = 0

surfaceRegion TRACTION_mantle write:
    none(mantle) of wallShearStress = (0 0 0)

I get past the save

Reading pointDisplacement

prev_runTime0.0006
GAMG:  Solving for cellDisplacementx, Initial residual = 0.014736, Final residual = 1.3229e-07, No Iterations 5
GAMG:  Solving for cellDisplacementy, Initial residual = 0.012058, Final residual = 1.2041e-07, No Iterations 6
GAMG:  Solving for cellDisplacementz, Initial residual = 0.011984, Final residual = 5.1841e-08, No Iterations 6
PIMPLE: iteration 1
smoothSolver:  Solving for Ux, Initial residual = 6.058e-05, Final residual = 9.054e-09, No Iterations 1
smoothSolver:  Solving for Uy, Initial residual = 0.00027436, Final residual = 5.3296e-08, No Iterations 1
smoothSolver:  Solving for Uz, Initial residual = 0.00027438, Final residual = 5.3289e-08, No Iterations 1
DICPCG:  Solving for p, Initial residual = 0.08851, Final residual = 0.00084392, No Iterations 40
DICPCG:  Solving for p, Initial residual = 0.0089916, Final residual = 8.553e-05, No Iterations 6
time step continuity errors : sum local = 8.4442e-08, global = -2.2859e-08, cumulative = -1.907e-07
PIMPLE: iteration 2
smoothSolver:  Solving for Ux, Initial residual = 0.015159, Final residual = 1.4259e-06, No Iterations 1
smoothSolver:  Solving for Uy, Initial residual = 0.012249, Final residual = 3.0126e-06, No Iterations 1
smoothSolver:  Solving for Uz, Initial residual = 0.011868, Final residual = 2.9894e-06, No Iterations 1
DICPCG:  Solving for p, Initial residual = 0.016631, Final residual = 0.00015755, No Iterations 39
DICPCG:  Solving for p, Initial residual = 0.0016722, Final residual = 1.6516e-05, No Iterations 7
time step continuity errors : sum local = 1.3514e-08, global = -1.5723e-09, cumulative = -1.9228e-07
PIMPLE: iteration 3
smoothSolver:  Solving for Ux, Initial residual = 0.0081644, Final residual = 4.1166e-10, No Iterations 2
smoothSolver:  Solving for Uy, Initial residual = 0.0078897, Final residual = 1.1921e-09, No Iterations 2
smoothSolver:  Solving for Uz, Initial residual = 0.0076715, Final residual = 1.1858e-09, No Iterations 2
DICPCG:  Solving for p, Initial residual = 0.037592, Final residual = 0.00024457, No Iterations 40
DICPCG:  Solving for p, Initial residual = 0.0027545, Final residual = 5.841e-10, No Iterations 56
time step continuity errors : sum local = 6.6101e-13, global = -4.6606e-15, cumulative = -1.9228e-07
ExecutionTime = 8.89 s  ClockTime = 305 s

surfaceRegion PRESSURE_mantle write:
    none(mantle) of p = 0

surfaceRegion TRACTION_mantle write:
    none(mantle) of wallShearStress = (0 0 0)

I get past the save

Reading pointDisplacement

prev_runTime0.0006
GAMG:  Solving for cellDisplacementx, Initial residual = 0.0006503, Final residual = 1.3488e-09, No Iterations 6
GAMG:  Solving for cellDisplacementy, Initial residual = 0.00059722, Final residual = 3.0703e-09, No Iterations 6
GAMG:  Solving for cellDisplacementz, Initial residual = 0.00056039, Final residual = 1.5661e-09, No Iterations 6
PIMPLE: iteration 1
smoothSolver:  Solving for Ux, Initial residual = 5.4677e-05, Final residual = 2.8535e-09, No Iterations 1
smoothSolver:  Solving for Uy, Initial residual = 0.0001408, Final residual = 2.0965e-08, No Iterations 1
smoothSolver:  Solving for Uz, Initial residual = 0.0001405, Final residual = 2.0943e-08, No Iterations 1
DICPCG:  Solving for p, Initial residual = 0.044756, Final residual = 0.00044673, No Iterations 37
DICPCG:  Solving for p, Initial residual = 0.0030892, Final residual = 3.0436e-05, No Iterations 28
time step continuity errors : sum local = 2.4933e-08, global = 4.1625e-09, cumulative = -1.8811e-07
PIMPLE: iteration 2
smoothSolver:  Solving for Ux, Initial residual = 0.00052784, Final residual = 5.2868e-08, No Iterations 1
smoothSolver:  Solving for Uy, Initial residual = 0.0045504, Final residual = 7.0526e-07, No Iterations 1
smoothSolver:  Solving for Uz, Initial residual = 0.0042869, Final residual = 6.8664e-07, No Iterations 1
DICPCG:  Solving for p, Initial residual = 0.0091476, Final residual = 8.0127e-05, No Iterations 12
DICPCG:  Solving for p, Initial residual = 0.00056823, Final residual = 5.3671e-06, No Iterations 34
time step continuity errors : sum local = 4.3673e-09, global = 2.2376e-10, cumulative = -1.8789e-07
PIMPLE: iteration 3
smoothSolver:  Solving for Ux, Initial residual = 0.00033181, Final residual = 4.5765e-08, No Iterations 1
smoothSolver:  Solving for Uy, Initial residual = 0.0031589, Final residual = 2.9207e-10, No Iterations 2
smoothSolver:  Solving for Uz, Initial residual = 0.0030108, Final residual = 2.8754e-10, No Iterations 2
DICPCG:  Solving for p, Initial residual = 0.036503, Final residual = 0.00034761, No Iterations 25
DICPCG:  Solving for p, Initial residual = 0.002531, Final residual = 7.1417e-10, No Iterations 55
time step continuity errors : sum local = 8.0758e-13, global = 1.6134e-14, cumulative = -1.8789e-07
ExecutionTime = 9.23 s  ClockTime = 316 s

surfaceRegion PRESSURE_mantle write:
    none(mantle) of p = 0

surfaceRegion TRACTION_mantle write:
    none(mantle) of wallShearStress = (0 0 0)

I get past the save

Courant Number mean: 0.0016805 max: 0.02345
0.0007

Time = 0.0008

Reading pointDisplacement

prev_runTime0.0007
GAMG:  Solving for cellDisplacementx, Initial residual = 0.077345, Final residual = 5.2404e-07, No Iterations 5
GAMG:  Solving for cellDisplacementy, Initial residual = 0.098477, Final residual = 4.1353e-07, No Iterations 6
GAMG:  Solving for cellDisplacementz, Initial residual = 0.098484, Final residual = 3.9028e-07, No Iterations 6
PIMPLE: iteration 1
smoothSolver:  Solving for Ux, Initial residual = 0.030882, Final residual = 4.2177e-06, No Iterations 1
smoothSolver:  Solving for Uy, Initial residual = 0.038264, Final residual = 9.8093e-06, No Iterations 1
smoothSolver:  Solving for Uz, Initial residual = 0.038119, Final residual = 9.8032e-06, No Iterations 1
DICPCG:  Solving for p, Initial residual = 0.059636, Final residual = 0.0004242, No Iterations 40
DICPCG:  Solving for p, Initial residual = 0.0043442, Final residual = 4.0757e-05, No Iterations 12
time step continuity errors : sum local = 3.1531e-08, global = 6.6711e-09, cumulative = -1.8122e-07
PIMPLE: iteration 2
smoothSolver:  Solving for Ux, Initial residual = 0.0092026, Final residual = 1.0509e-06, No Iterations 1
smoothSolver:  Solving for Uy, Initial residual = 0.0094311, Final residual = 1.9583e-06, No Iterations 1
smoothSolver:  Solving for Uz, Initial residual = 0.0094238, Final residual = 1.9568e-06, No Iterations 1
DICPCG:  Solving for p, Initial residual = 0.018376, Final residual = 0.00016687, No Iterations 40
DICPCG:  Solving for p, Initial residual = 0.0024027, Final residual = 2.1368e-05, No Iterations 10
time step continuity errors : sum local = 1.6318e-08, global = 3.4827e-09, cumulative = -1.7774e-07
PIMPLE: iteration 3
smoothSolver:  Solving for Ux, Initial residual = 0.0064598, Final residual = 3.3152e-10, No Iterations 2
smoothSolver:  Solving for Uy, Initial residual = 0.0025121, Final residual = 2.3276e-10, No Iterations 2
smoothSolver:  Solving for Uz, Initial residual = 0.0024801, Final residual = 2.3034e-10, No Iterations 2
DICPCG:  Solving for p, Initial residual = 0.039567, Final residual = 0.00033269, No Iterations 39
DICPCG:  Solving for p, Initial residual = 0.0027904, Final residual = 9.7852e-10, No Iterations 55
time step continuity errors : sum local = 1.0216e-12, global = -4.4155e-15, cumulative = -1.7774e-07
ExecutionTime = 9.55 s  ClockTime = 327 s

surfaceRegion PRESSURE_mantle write:
    none(mantle) of p = 0

[...]
GAMG:  Solving for cellDisplacementy, Initial residual = 0.037975, Final residual = 1.0618e-07, No Iterations 6
GAMG:  Solving for cellDisplacementz, Initial residual = 0.037976, Final residual = 9.5916e-08, No Iterations 6
PIMPLE: iteration 1
smoothSolver:  Solving for Ux, Initial residual = 0.013422, Final residual = 1.8784e-05, No Iterations 1
smoothSolver:  Solving for Uy, Initial residual = 0.037696, Final residual = 6.5258e-05, No Iterations 1
smoothSolver:  Solving for Uz, Initial residual = 0.037718, Final residual = 6.5228e-05, No Iterations 1
DICPCG:  Solving for p, Initial residual = 0.23336, Final residual = 0.0014392, No Iterations 39
DICPCG:  Solving for p, Initial residual = 0.040464, Final residual = 0.00039059, No Iterations 10
time step continuity errors : sum local = 6.5942e-08, global = -1.5135e-09, cumulative = -6.9932e-07
PIMPLE: iteration 2
smoothSolver:  Solving for Ux, Initial residual = 0.0011353, Final residual = 1.5387e-06, No Iterations 1
smoothSolver:  Solving for Uy, Initial residual = 0.0079419, Final residual = 1.2883e-05, No Iterations 1
smoothSolver:  Solving for Uz, Initial residual = 0.0079439, Final residual = 1.2882e-05, No Iterations 1
DICPCG:  Solving for p, Initial residual = 0.13112, Final residual = 0.00097189, No Iterations 39
DICPCG:  Solving for p, Initial residual = 0.024843, Final residual = 0.00022502, No Iterations 6
time step continuity errors : sum local = 3.0459e-08, global = -1.6954e-09, cumulative = -7.0101e-07
PIMPLE: iteration 3
smoothSolver:  Solving for Ux, Initial residual = 0.0011482, Final residual = 1.405e-09, No Iterations 2
smoothSolver:  Solving for Uy, Initial residual = 0.0021082, Final residual = 2.7929e-09, No Iterations 2
smoothSolver:  Solving for Uz, Initial residual = 0.0021046, Final residual = 2.779e-09, No Iterations 2
DICPCG:  Solving for p, Initial residual = 0.33493, Final residual = 0.0028614, No Iterations 23
DICPCG:  Solving for p, Initial residual = 0.03358, Final residual = 6.9861e-10, No Iterations 60
time step continuity errors : sum local = 7.5988e-14, global = 1.7115e-16, cumulative = -7.0101e-07
ExecutionTime = 140.24 s  ClockTime = 4615 s

surfaceRegion PRESSURE_mantle write:
    none(mantle) of p = 0

surfaceRegion TRACTION_mantle write:
    none(mantle) of wallShearStress = (0 0 0)

I get past the save

Reading pointDisplacement

prev_runTime0.0098
GAMG:  Solving for cellDisplacementx, Initial residual = 0.0057897, Final residual = 5.767e-08, No Iterations 7
GAMG:  Solving for cellDisplacementy, Initial residual = 0.0051762, Final residual = 2.826e-08, No Iterations 8
GAMG:  Solving for cellDisplacementz, Initial residual = 0.0051719, Final residual = 4.1625e-08, No Iterations 7
PIMPLE: iteration 1
smoothSolver:  Solving for Ux, Initial residual = 7.1981e-05, Final residual = 1.7585e-07, No Iterations 1
smoothSolver:  Solving for Uy, Initial residual = 0.00019378, Final residual = 4.6224e-07, No Iterations 1
smoothSolver:  Solving for Uz, Initial residual = 0.00019369, Final residual = 4.6202e-07, No Iterations 1
DICPCG:  Solving for p, Initial residual = 0.63487, Final residual = 0.0044056, No Iterations 39
DICPCG:  Solving for p, Initial residual = 0.030033, Final residual = 0.0002118, No Iterations 6
time step continuity errors : sum local = 1.0078e-07, global = 6.1567e-09, cumulative = -6.9486e-07
PIMPLE: iteration 2
smoothSolver:  Solving for Ux, Initial residual = 0.0042158, Final residual = 5.8225e-06, No Iterations 1
smoothSolver:  Solving for Uy, Initial residual = 0.010684, Final residual = 2.003e-05, No Iterations 1
smoothSolver:  Solving for Uz, Initial residual = 0.010662, Final residual = 1.9986e-05, No Iterations 1
DICPCG:  Solving for p, Initial residual = 0.054491, Final residual = 0.00044081, No Iterations 38
DICPCG:  Solving for p, Initial residual = 0.005174, Final residual = 3.0215e-05, No Iterations 6
time step continuity errors : sum local = 1.2275e-08, global = -1.4521e-09, cumulative = -6.9631e-07
PIMPLE: iteration 3
smoothSolver:  Solving for Ux, Initial residual = 0.0023336, Final residual = 2.7983e-09, No Iterations 2
smoothSolver:  Solving for Uy, Initial residual = 0.0068889, Final residual = 1.058e-08, No Iterations 2
smoothSolver:  Solving for Uz, Initial residual = 0.0068746, Final residual = 1.0544e-08, No Iterations 2
DICPCG:  Solving for p, Initial residual = 0.12242, Final residual = 0.00076558, No Iterations 36
DICPCG:  Solving for p, Initial residual = 0.0099276, Final residual = 8.8392e-10, No Iterations 58
time step continuity errors : sum local = 3.7839e-13, global = 8.6618e-15, cumulative = -6.9631e-07
ExecutionTime = 140.56 s  ClockTime = 4626 s

surfaceRegion PRESSURE_mantle write:
    none(mantle) of p = 0

surfaceRegion TRACTION_mantle write:
    none(mantle) of wallShearStress = (0 0 0)

I get past the save

Reading pointDisplacement

prev_runTime0.0098
GAMG:  Solving for cellDisplacementx, Initial residual = 0.00010753, Final residual = 6.8626e-10, No Iterations 6
GAMG:  Solving for cellDisplacementy, Initial residual = 0.00016788, Final residual = 7.342e-10, No Iterations 6
GAMG:  Solving for cellDisplacementz, Initial residual = 0.00016816, Final residual = 3.9119e-10, No Iterations 6
PIMPLE: iteration 1
smoothSolver:  Solving for Ux, Initial residual = 2.6327e-05, Final residual = 3.6421e-08, No Iterations 1
smoothSolver:  Solving for Uy, Initial residual = 0.00023012, Final residual = 5.3531e-07, No Iterations 1
smoothSolver:  Solving for Uz, Initial residual = 0.00023001, Final residual = 5.3488e-07, No Iterations 1
DICPCG:  Solving for p, Initial residual = 0.14461, Final residual = 0.0013734, No Iterations 24
DICPCG:  Solving for p, Initial residual = 0.0081735, Final residual = 5.8305e-05, No Iterations 34
time step continuity errors : sum local = 2.2526e-08, global = -1.161e-09, cumulative = -6.9747e-07
PIMPLE: iteration 2
smoothSolver:  Solving for Ux, Initial residual = 0.0001209, Final residual = 1.4677e-07, No Iterations 1
smoothSolver:  Solving for Uy, Initial residual = 0.0030158, Final residual = 5.3257e-06, No Iterations 1
smoothSolver:  Solving for Uz, Initial residual = 0.0030002, Final residual = 5.3454e-06, No Iterations 1
DICPCG:  Solving for p, Initial residual = 0.02855, Final residual = 0.00024489, No Iterations 6
DICPCG:  Solving for p, Initial residual = 0.0015996, Final residual = 1.0753e-05, No Iterations 34
time step continuity errors : sum local = 4.0832e-09, global = 3.9583e-11, cumulative = -6.9743e-07
PIMPLE: iteration 3
smoothSolver:  Solving for Ux, Initial residual = 7.8948e-05, Final residual = 7.6271e-11, No Iterations 2
smoothSolver:  Solving for Uy, Initial residual = 0.0021738, Final residual = 3.1515e-09, No Iterations 2
smoothSolver:  Solving for Uz, Initial residual = 0.0021641, Final residual = 3.1563e-09, No Iterations 2
DICPCG:  Solving for p, Initial residual = 0.12165, Final residual = 0.0010562, No Iterations 18
DICPCG:  Solving for p, Initial residual = 0.0086503, Final residual = 7.1588e-10, No Iterations 58
time step continuity errors : sum local = 3.1073e-13, global = 7.5153e-15, cumulative = -6.9743e-07
ExecutionTime = 140.89 s  ClockTime = 4637 s

surfaceRegion PRESSURE_mantle write:
    none(mantle) of p = 0

surfaceRegion TRACTION_mantle write:
    none(mantle) of wallShearStress = (0 0 0)

I get past the save

Reading pointDisplacement

prev_runTime0.0098
GAMG:  Solving for cellDisplacementx, Initial residual = 3.5612e-06, Final residual = 8.0686e-10, No Iterations 7
GAMG:  Solving for cellDisplacementy, Initial residual = 1.7957e-05, Final residual = 9.1955e-10, No Iterations 7
GAMG:  Solving for cellDisplacementz, Initial residual = 1.7923e-05, Final residual = 9.6495e-10, No Iterations 6
PIMPLE: iteration 1
smoothSolver:  Solving for Ux, Initial residual = 5.9006e-06, Final residual = 9.8725e-09, No Iterations 1
smoothSolver:  Solving for Uy, Initial residual = 0.00020763, Final residual = 4.8444e-07, No Iterations 1
smoothSolver:  Solving for Uz, Initial residual = 0.00020773, Final residual = 4.848e-07, No Iterations 1
DICPCG:  Solving for p, Initial residual = 0.1437, Final residual = 0.0013, No Iterations 18
DICPCG:  Solving for p, Initial residual = 0.008195, Final residual = 6.6568e-05, No Iterations 28
time step continuity errors : sum local = 2.5594e-08, global = -1.928e-10, cumulative = -6.9762e-07
PIMPLE: iteration 2
smoothSolver:  Solving for Ux, Initial residual = 0.00011747, Final residual = 1.4614e-07, No Iterations 1
smoothSolver:  Solving for Uy, Initial residual = 0.0029876, Final residual = 5.3143e-06, No Iterations 1
smoothSolver:  Solving for Uz, Initial residual = 0.0030112, Final residual = 5.3436e-06, No Iterations 1
DICPCG:  Solving for p, Initial residual = 0.028504, Final residual = 0.0002154, No Iterations 6
DICPCG:  Solving for p, Initial residual = 0.0015933, Final residual = 1.1331e-05, No Iterations 32
time step continuity errors : sum local = 4.2977e-09, global = 4.6836e-10, cumulative = -6.9715e-07
PIMPLE: iteration 3
smoothSolver:  Solving for Ux, Initial residual = 7.7318e-05, Final residual = 7.8033e-11, No Iterations 2
smoothSolver:  Solving for Uy, Initial residual = 0.0021558, Final residual = 3.1404e-09, No Iterations 2
smoothSolver:  Solving for Uz, Initial residual = 0.0021688, Final residual = 3.1486e-09, No Iterations 2
DICPCG:  Solving for p, Initial residual = 0.12187, Final residual = 0.0010398, No Iterations 18
DICPCG:  Solving for p, Initial residual = 0.0086544, Final residual = 7.0645e-10, No Iterations 58
time step continuity errors : sum local = 3.0607e-13, global = 7.6376e-15, cumulative = -6.9715e-07
ExecutionTime = 141.23 s  ClockTime = 4649 s

surfaceRegion PRESSURE_mantle write:
    none(mantle) of p = 0

surfaceRegion TRACTION_mantle write:
    none(mantle) of wallShearStress = (0 0 0)

I get past the save

Courant Number mean: 0.010351 max: 0.02793
0.0099

Time = 0.0100

Reading pointDisplacement

prev_runTime0.0099
GAMG:  Solving for cellDisplacementx, Initial residual = 0.064049, Final residual = 2.0763e-07, No Iterations 4
GAMG:  Solving for cellDisplacementy, Initial residual = 0.040832, Final residual = 1.1039e-07, No Iterations 6
GAMG:  Solving for cellDisplacementz, Initial residual = 0.040833, Final residual = 8.7612e-08, No Iterations 6
PIMPLE: iteration 1
smoothSolver:  Solving for Ux, Initial residual = 0.012953, Final residual = 1.7922e-05, No Iterations 1
smoothSolver:  Solving for Uy, Initial residual = 0.035911, Final residual = 6.3864e-05, No Iterations 1
smoothSolver:  Solving for Uz, Initial residual = 0.035919, Final residual = 6.3915e-05, No Iterations 1
DICPCG:  Solving for p, Initial residual = 0.25123, Final residual = 0.0016178, No Iterations 39
DICPCG:  Solving for p, Initial residual = 0.039298, Final residual = 0.00035856, No Iterations 11
time step continuity errors : sum local = 6.1546e-08, global = -5.4996e-11, cumulative = -6.9721e-07
PIMPLE: iteration 2
smoothSolver:  Solving for Ux, Initial residual = 0.0010937, Final residual = 1.4934e-06, No Iterations 1
smoothSolver:  Solving for Uy, Initial residual = 0.0076133, Final residual = 1.2943e-05, No Iterations 1
smoothSolver:  Solving for Uz, Initial residual = 0.0076078, Final residual = 1.2936e-05, No Iterations 1
DICPCG:  Solving for p, Initial residual = 0.13237, Final residual = 0.001019, No Iterations 39
DICPCG:  Solving for p, Initial residual = 0.023738, Final residual = 0.00023436, No Iterations 6
time step continuity errors : sum local = 3.2647e-08, global = -2.0311e-09, cumulative = -6.9924e-07
PIMPLE: iteration 3
smoothSolver:  Solving for Ux, Initial residual = 0.0011166, Final residual = 1.3436e-09, No Iterations 2
smoothSolver:  Solving for Uy, Initial residual = 0.0020339, Final residual = 2.8185e-09, No Iterations 2
smoothSolver:  Solving for Uz, Initial residual = 0.0020331, Final residual = 2.8058e-09, No Iterations 2
DICPCG:  Solving for p, Initial residual = 0.34216, Final residual = 0.0033193, No Iterations 22
DICPCG:  Solving for p, Initial residual = 0.034908, Final residual = 5.6698e-10, No Iterations 61
time step continuity errors : sum local = 6.0523e-14, global = -7.3703e-16, cumulative = -6.9924e-07
ExecutionTime = 141.56 s  ClockTime = 4659 s

surfaceRegion PRESSURE_mantle write:
    none(mantle) of p = 0

surfaceRegion TRACTION_mantle write:
    none(mantle) of wallShearStress = (0 0 0)

I get past the save

Reading pointDisplacement

prev_runTime0.0099
GAMG:  Solving for cellDisplacementx, Initial residual = 0.005811, Final residual = 3.4089e-08, No Iterations 8
GAMG:  Solving for cellDisplacementy, Initial residual = 0.0053641, Final residual = 3.1373e-08, No Iterations 8
GAMG:  Solving for cellDisplacementz, Initial residual = 0.0053637, Final residual = 4.0948e-08, No Iterations 7
PIMPLE: iteration 1
smoothSolver:  Solving for Ux, Initial residual = 7.1501e-05, Final residual = 1.7332e-07, No Iterations 1
smoothSolver:  Solving for Uy, Initial residual = 0.00019858, Final residual = 4.8129e-07, No Iterations 1
smoothSolver:  Solving for Uz, Initial residual = 0.00019846, Final residual = 4.8097e-07, No Iterations 1
DICPCG:  Solving for p, Initial residual = 0.63575, Final residual = 0.0044305, No Iterations 39
DICPCG:  Solving for p, Initial residual = 0.031947, Final residual = 0.00024451, No Iterations 6
time step continuity errors : sum local = 1.0799e-07, global = 7.5848e-09, cumulative = -6.9166e-07
PIMPLE: iteration 2
smoothSolver:  Solving for Ux, Initial residual = 0.004072, Final residual = 5.4937e-06, No Iterations 1
smoothSolver:  Solving for Uy, Initial residual = 0.010292, Final residual = 1.9645e-05, No Iterations 1
smoothSolver:  Solving for Uz, Initial residual = 0.010277, Final residual = 1.9588e-05, No Iterations 1
DICPCG:  Solving for p, Initial residual = 0.058406, Final residual = 0.00055557, No Iterations 27
DICPCG:  Solving for p, Initial residual = 0.0055946, Final residual = 5.3945e-05, No Iterations 26
time step continuity errors : sum local = 2.0376e-08, global = -5.2373e-10, cumulative = -6.9218e-07
PIMPLE: iteration 3
smoothSolver:  Solving for Ux, Initial residual = 0.0022526, Final residual = 2.6582e-09, No Iterations 2
smoothSolver:  Solving for Uy, Initial residual = 0.0066491, Final residual = 1.0466e-08, No Iterations 2
smoothSolver:  Solving for Uz, Initial residual = 0.0066389, Final residual = 1.0429e-08, No Iterations 2
DICPCG:  Solving for p, Initial residual = 0.135, Final residual = 0.0013292, No Iterations 26
DICPCG:  Solving for p, Initial residual = 0.011, Final residual = 5.6035e-10, No Iterations 59
time step continuity errors : sum local = 2.2324e-13, global = 4.3428e-15, cumulative = -6.9218e-07
ExecutionTime = 141.87 s  ClockTime = 4671 s

surfaceRegion PRESSURE_mantle write:
    none(mantle) of p = 0

surfaceRegion TRACTION_mantle write:
    none(mantle) of wallShearStress = (0 0 0)

I get past the save

Reading pointDisplacement

prev_runTime0.0099
GAMG:  Solving for cellDisplacementx, Initial residual = 0.00011038, Final residual = 6.7197e-10, No Iterations 6
GAMG:  Solving for cellDisplacementy, Initial residual = 0.00017667, Final residual = 7.1737e-10, No Iterations 6
GAMG:  Solving for cellDisplacementz, Initial residual = 0.00018121, Final residual = 4.1859e-10, No Iterations 6
PIMPLE: iteration 1
smoothSolver:  Solving for Ux, Initial residual = 2.6122e-05, Final residual = 3.4396e-08, No Iterations 1
smoothSolver:  Solving for Uy, Initial residual = 0.00023433, Final residual = 5.5128e-07, No Iterations 1
smoothSolver:  Solving for Uz, Initial residual = 0.00023435, Final residual = 5.513e-07, No Iterations 1
DICPCG:  Solving for p, Initial residual = 0.15882, Final residual = 0.0013595, No Iterations 24
DICPCG:  Solving for p, Initial residual = 0.0087895, Final residual = 8.7725e-05, No Iterations 34
time step continuity errors : sum local = 3.1862e-08, global = -2.2388e-09, cumulative = -6.9442e-07
PIMPLE: iteration 2
smoothSolver:  Solving for Ux, Initial residual = 0.00012173, Final residual = 1.4436e-07, No Iterations 1
smoothSolver:  Solving for Uy, Initial residual = 0.0029585, Final residual = 5.4029e-06, No Iterations 1
smoothSolver:  Solving for Uz, Initial residual = 0.0030037, Final residual = 5.4718e-06, No Iterations 1
DICPCG:  Solving for p, Initial residual = 0.031078, Final residual = 0.00026595, No Iterations 6
DICPCG:  Solving for p, Initial residual = 0.0017341, Final residual = 1.5065e-05, No Iterations 33
time step continuity errors : sum local = 5.3693e-09, global = 2.4714e-11, cumulative = -6.9439e-07
PIMPLE: iteration 3
smoothSolver:  Solving for Ux, Initial residual = 7.9742e-05, Final residual = 7.7327e-11, No Iterations 2
smoothSolver:  Solving for Uy, Initial residual = 0.0021391, Final residual = 3.1992e-09, No Iterations 2
smoothSolver:  Solving for Uz, Initial residual = 0.0021633, Final residual = 3.2245e-09, No Iterations 2
DICPCG:  Solving for p, Initial residual = 0.13372, Final residual = 0.0011577, No Iterations 18
DICPCG:  Solving for p, Initial residual = 0.009618, Final residual = 7.7392e-10, No Iterations 58
time step continuity errors : sum local = 3.0806e-13, global = 2.2883e-15, cumulative = -6.9439e-07
ExecutionTime = 142.17 s  ClockTime = 4682 s

surfaceRegion PRESSURE_mantle write:
    none(mantle) of p = 0

surfaceRegion TRACTION_mantle write:
    none(mantle) of wallShearStress = (0 0 0)

I get past the save

Reading pointDisplacement

prev_runTime0.0099
GAMG:  Solving for cellDisplacementx, Initial residual = 3.8714e-06, Final residual = 4.8639e-10, No Iterations 8
GAMG:  Solving for cellDisplacementy, Initial residual = 2.1085e-05, Final residual = 5.4639e-10, No Iterations 8
GAMG:  Solving for cellDisplacementz, Initial residual = 1.9406e-05, Final residual = 3.9501e-10, No Iterations 7
PIMPLE: iteration 1
smoothSolver:  Solving for Ux, Initial residual = 6.1341e-06, Final residual = 1.0054e-08, No Iterations 1
smoothSolver:  Solving for Uy, Initial residual = 0.00021256, Final residual = 5.0339e-07, No Iterations 1
smoothSolver:  Solving for Uz, Initial residual = 0.00021282, Final residual = 5.0395e-07, No Iterations 1
DICPCG:  Solving for p, Initial residual = 0.15804, Final residual = 0.0014534, No Iterations 18
DICPCG:  Solving for p, Initial residual = 0.0089148, Final residual = 7.9918e-05, No Iterations 31
time step continuity errors : sum local = 2.8889e-08, global = 4.2889e-10, cumulative = -6.9396e-07
PIMPLE: iteration 2
smoothSolver:  Solving for Ux, Initial residual = 0.00012, Final residual = 1.4265e-07, No Iterations 1
smoothSolver:  Solving for Uy, Initial residual = 0.0029821, Final residual = 5.4262e-06, No Iterations 1
smoothSolver:  Solving for Uz, Initial residual = 0.0029755, Final residual = 5.4141e-06, No Iterations 1
DICPCG:  Solving for p, Initial residual = 0.031077, Final residual = 0.00023911, No Iterations 6
DICPCG:  Solving for p, Initial residual = 0.0017341, Final residual = 1.5322e-05, No Iterations 33
time step continuity errors : sum local = 5.456e-09, global = -6.2678e-10, cumulative = -6.9459e-07
PIMPLE: iteration 3
smoothSolver:  Solving for Ux, Initial residual = 7.9013e-05, Final residual = 7.7702e-11, No Iterations 2
smoothSolver:  Solving for Uy, Initial residual = 0.0021511, Final residual = 3.2042e-09, No Iterations 2
smoothSolver:  Solving for Uz, Initial residual = 0.0021465, Final residual = 3.1916e-09, No Iterations 2
DICPCG:  Solving for p, Initial residual = 0.13396, Final residual = 0.0011298, No Iterations 18
DICPCG:  Solving for p, Initial residual = 0.0096188, Final residual = 7.6048e-10, No Iterations 58
time step continuity errors : sum local = 3.022e-13, global = 1.4343e-15, cumulative = -6.9459e-07
ExecutionTime = 142.49 s  ClockTime = 4693 s

surfaceRegion PRESSURE_mantle write:
    none(mantle) of p = 0

surfaceRegion TRACTION_mantle write:
    none(mantle) of wallShearStress = (0 0 0)

I get past the save

