/*---------------------------------------------------------------------------*\
| =========                 |                                                 |
| \\      /  F ield         | OpenFOAM: The Open Source CFD Toolbox           |
|  \\    /   O peration     | Version:  4.1                                   |
|   \\  /    A nd           | Web:      www.OpenFOAM.org                      |
|    \\/     M anipulation  |                                                 |
\*---------------------------------------------------------------------------*/
Build  : 4.1
Exec   : decomposePar -fields -time 0.0039
Date   : Nov 18 2020
Time   : 13:27:15
Host   : "cfdclu27.ugent.be"
PID    : 1233
Case   : /lusers/temp/mathieu/PycharmProjects/coconut/test_examples/tube_OpenFoam3d_abaqus3d2Cores/CFD
nProcs : 1
sigFpe : Enabling floating point exception trapping (FOAM_SIGFPE).
fileModificationChecking : Monitoring run-time modified files using timeStampMaster
allowSystemOperations : Allowing user-supplied system call operations

// * * * * * * * * * * * * * * * * * * * * * * * * * * * * * * * * * * * * * //
Create time



Decomposing mesh region0

Create mesh
Time = 0.0039

Processor 0: field transfer
Processor 1: field transfer

End

