/*---------------------------------------------------------------------------*\
| =========                 |                                                 |
| \\      /  F ield         | OpenFOAM: The Open Source CFD Toolbox           |
|  \\    /   O peration     | Version:  4.1                                   |
|   \\  /    A nd           | Web:      www.OpenFOAM.org                      |
|    \\/     M anipulation  |                                                 |
\*---------------------------------------------------------------------------*/
Build  : 4.1
Exec   : CoCoNuT_pimpleFoam -parallel
Date   : Dec 01 2020
Time   : 10:14:00
Host   : "cfdclu27.ugent.be"
PID    : 4175
Case   : /lusers/temp/mathieu/PycharmProjects/coconut/test_examples/tube_OpenFoam3d_abaqus3d2Cores/CFD
nProcs : 2
Slaves : 1("cfdclu27.ugent.be.4177")
Pstream initialized with:
    floatTransfer      : 0
    nProcsSimpleSum    : 0
    commsType          : nonBlocking
    polling iterations : 0
sigFpe : Enabling floating point exception trapping (FOAM_SIGFPE).
fileModificationChecking : Monitoring run-time modified files using timeStampMaster
allowSystemOperations : Allowing user-supplied system call operations

// * * * * * * * * * * * * * * * * * * * * * * * * * * * * * * * * * * * * * //
Create time

Create mesh for time = 0.0000

Selecting dynamicFvMesh dynamicMotionSolverFvMesh
Selecting motion solver: displacementLaplacian
Selecting motion diffusion: inverseDistance

PIMPLE: no residual control data found. Calculations will employ 3 corrector loops

Reading field p

Reading field U

Reading/calculating face flux field phi

Selecting incompressible transport model Newtonian
Selecting turbulence model type laminar
No MRF models present

Reading/calculating face velocity Uf

No finite volume options present

Courant Number mean: 0 max: 0
surfaceRegion PRESSURE_mantle:
    total faces  = 1536
    total area   = 0.0015683


wallShearStress wallShearStress:
    processing all wall patches

surfaceRegion TRACTION_mantle:
    total faces  = 1536
    total area   = 0.0015683


Courant Number mean: 0 max: 0
0.0000

Time = 0.0001

Reading pointDisplacement

prev_runTime0.0000
GAMG:  Solving for cellDisplacementx, Initial residual = 0, Final residual = 0, No Iterations 0
GAMG:  Solving for cellDisplacementy, Initial residual = 0, Final residual = 0, No Iterations 0
GAMG:  Solving for cellDisplacementz, Initial residual = 0, Final residual = 0, No Iterations 0
PIMPLE: iteration 1
smoothSolver:  Solving for Ux, Initial residual = 1, Final residual = 1.1796e-06, No Iterations 1
smoothSolver:  Solving for Uy, Initial residual = 0.73907, Final residual = 2.1807e-06, No Iterations 1
smoothSolver:  Solving for Uz, Initial residual = 0.73907, Final residual = 2.1793e-06, No Iterations 1
DICPCG:  Solving for p, Initial residual = 1, Final residual = 0.0054977, No Iterations 38
DICPCG:  Solving for p, Initial residual = 0.0027495, Final residual = 2.5404e-05, No Iterations 12
time step continuity errors : sum local = 1.8222e-08, global = -2.9212e-09, cumulative = -2.9212e-09
PIMPLE: iteration 2
smoothSolver:  Solving for Ux, Initial residual = 0.28312, Final residual = 2.5237e-06, No Iterations 1
smoothSolver:  Solving for Uy, Initial residual = 0.14583, Final residual = 8.5907e-07, No Iterations 1
smoothSolver:  Solving for Uz, Initial residual = 0.14641, Final residual = 6.7443e-07, No Iterations 1
DICPCG:  Solving for p, Initial residual = 0.19744, Final residual = 0.0018265, No Iterations 39
DICPCG:  Solving for p, Initial residual = 0.0015283, Final residual = 1.3915e-05, No Iterations 15
time step continuity errors : sum local = 1.0407e-08, global = -1.5742e-09, cumulative = -4.4954e-09
PIMPLE: iteration 3
smoothSolver:  Solving for Ux, Initial residual = 0.62743, Final residual = 2.8872e-09, No Iterations 2
smoothSolver:  Solving for Uy, Initial residual = 0.038209, Final residual = 2.5129e-10, No Iterations 2
smoothSolver:  Solving for Uz, Initial residual = 0.033786, Final residual = 1.8137e-10, No Iterations 2
DICPCG:  Solving for p, Initial residual = 0.046627, Final residual = 0.00042814, No Iterations 37
DICPCG:  Solving for p, Initial residual = 0.00042405, Final residual = 8.5903e-10, No Iterations 50
time step continuity errors : sum local = 8.7754e-13, global = 1.4501e-14, cumulative = -4.4954e-09
ExecutionTime = 0.45 s  ClockTime = 6 s

surfaceRegion PRESSURE_mantle write:
    none(mantle) of p = 0

surfaceRegion TRACTION_mantle write:
    none(mantle) of wallShearStress = (0 0 0)

I get past the save

Reading pointDisplacement

prev_runTime0.0000
GAMG:  Solving for cellDisplacementx, Initial residual = 1, Final residual = 7.5191e-06, No Iterations 7
GAMG:  Solving for cellDisplacementy, Initial residual = 1, Final residual = 7.2641e-06, No Iterations 8
GAMG:  Solving for cellDisplacementz, Initial residual = 1, Final residual = 9.8494e-06, No Iterations 8
PIMPLE: iteration 1
smoothSolver:  Solving for Ux, Initial residual = 0.28522, Final residual = 1.9379e-06, No Iterations 1
smoothSolver:  Solving for Uy, Initial residual = 0.22789, Final residual = 2.3472e-06, No Iterations 1
smoothSolver:  Solving for Uz, Initial residual = 0.23208, Final residual = 2.3867e-06, No Iterations 1
DICPCG:  Solving for p, Initial residual = 0.02628, Final residual = 0.00022794, No Iterations 29
DICPCG:  Solving for p, Initial residual = 0.0044189, Final residual = 3.8724e-05, No Iterations 6
time step continuity errors : sum local = 2.9244e-08, global = -3.5932e-09, cumulative = -8.0886e-09
PIMPLE: iteration 2
smoothSolver:  Solving for Ux, Initial residual = 0.13147, Final residual = 4.2529e-07, No Iterations 1
smoothSolver:  Solving for Uy, Initial residual = 0.13132, Final residual = 1.8693e-06, No Iterations 1
smoothSolver:  Solving for Uz, Initial residual = 0.13132, Final residual = 1.8675e-06, No Iterations 1
DICPCG:  Solving for p, Initial residual = 0.0044223, Final residual = 2.7414e-05, No Iterations 29
DICPCG:  Solving for p, Initial residual = 0.00064709, Final residual = 6.3024e-06, No Iterations 5
time step continuity errors : sum local = 4.7332e-09, global = -4.3583e-10, cumulative = -8.5244e-09
PIMPLE: iteration 3
smoothSolver:  Solving for Ux, Initial residual = 0.057076, Final residual = 4.8411e-11, No Iterations 2
smoothSolver:  Solving for Uy, Initial residual = 0.061481, Final residual = 4.3475e-10, No Iterations 2
smoothSolver:  Solving for Uz, Initial residual = 0.061484, Final residual = 4.3461e-10, No Iterations 2
DICPCG:  Solving for p, Initial residual = 0.0031483, Final residual = 1.9082e-05, No Iterations 29
DICPCG:  Solving for p, Initial residual = 0.00039746, Final residual = 9.6452e-10, No Iterations 49
time step continuity errors : sum local = 1.0281e-12, global = -5.7056e-15, cumulative = -8.5244e-09
ExecutionTime = 0.99 s  ClockTime = 20 s

surfaceRegion PRESSURE_mantle write:
    none(mantle) of p = 0

surfaceRegion TRACTION_mantle write:
    none(mantle) of wallShearStress = (0 0 0)

I get past the save

Reading pointDisplacement

prev_runTime0.0000
GAMG:  Solving for cellDisplacementx, Initial residual = 0.98273, Final residual = 7.5519e-06, No Iterations 8
GAMG:  Solving for cellDisplacementy, Initial residual = 0.9717, Final residual = 9.2435e-06, No Iterations 7
GAMG:  Solving for cellDisplacementz, Initial residual = 0.97171, Final residual = 5.7004e-06, No Iterations 8
PIMPLE: iteration 1
smoothSolver:  Solving for Ux, Initial residual = 0.00056479, Final residual = 1.6265e-08, No Iterations 1
smoothSolver:  Solving for Uy, Initial residual = 0.065754, Final residual = 9.3368e-07, No Iterations 1
smoothSolver:  Solving for Uz, Initial residual = 0.065754, Final residual = 9.455e-07, No Iterations 1
DICPCG:  Solving for p, Initial residual = 0.53777, Final residual = 0.0047239, No Iterations 29
DICPCG:  Solving for p, Initial residual = 0.018632, Final residual = 0.00017612, No Iterations 12
time step continuity errors : sum local = 1.4161e-06, global = 4.0875e-08, cumulative = 3.2351e-08
PIMPLE: iteration 2
smoothSolver:  Solving for Ux, Initial residual = 0.11861, Final residual = 8.6294e-06, No Iterations 1
smoothSolver:  Solving for Uy, Initial residual = 0.12969, Final residual = 7.3861e-06, No Iterations 1
smoothSolver:  Solving for Uz, Initial residual = 0.12972, Final residual = 7.4233e-06, No Iterations 1
DICPCG:  Solving for p, Initial residual = 0.023501, Final residual = 0.00014112, No Iterations 29
DICPCG:  Solving for p, Initial residual = 0.0026574, Final residual = 2.4185e-05, No Iterations 9
time step continuity errors : sum local = 1.5841e-07, global = -6.9313e-09, cumulative = 2.5419e-08
PIMPLE: iteration 3
smoothSolver:  Solving for Ux, Initial residual = 0.053136, Final residual = 2.5906e-09, No Iterations 2
smoothSolver:  Solving for Uy, Initial residual = 0.059593, Final residual = 2.8972e-09, No Iterations 2
smoothSolver:  Solving for Uz, Initial residual = 0.059606, Final residual = 2.881e-09, No Iterations 2
DICPCG:  Solving for p, Initial residual = 0.015606, Final residual = 0.00010087, No Iterations 29
DICPCG:  Solving for p, Initial residual = 0.0020094, Final residual = 6.7759e-10, No Iterations 53
time step continuity errors : sum local = 5.6153e-12, global = 9.6183e-14, cumulative = 2.5419e-08
ExecutionTime = 1.83 s  ClockTime = 37 s

surfaceRegion PRESSURE_mantle write:
    none(mantle) of p = 0

surfaceRegion TRACTION_mantle write:
    none(mantle) of wallShearStress = (0 0 0)

I get past the save

Reading pointDisplacement

prev_runTime0.0000
GAMG:  Solving for cellDisplacementx, Initial residual = 0.29606, Final residual = 1.3709e-06, No Iterations 5
GAMG:  Solving for cellDisplacementy, Initial residual = 0.26679, Final residual = 1.2822e-06, No Iterations 6
GAMG:  Solving for cellDisplacementz, Initial residual = 0.27091, Final residual = 5.688e-07, No Iterations 6
PIMPLE: iteration 1
smoothSolver:  Solving for Ux, Initial residual = 0.00030066, Final residual = 1.1884e-08, No Iterations 1
smoothSolver:  Solving for Uy, Initial residual = 0.00049237, Final residual = 1.4426e-08, No Iterations 1
smoothSolver:  Solving for Uz, Initial residual = 0.00048491, Final residual = 1.4561e-08, No Iterations 1
DICPCG:  Solving for p, Initial residual = 0.081372, Final residual = 0.00065262, No Iterations 36
DICPCG:  Solving for p, Initial residual = 0.014167, Final residual = 8.2009e-05, No Iterations 8
time step continuity errors : sum local = 4.8326e-07, global = -2.8285e-08, cumulative = -2.8658e-09
PIMPLE: iteration 2
smoothSolver:  Solving for Ux, Initial residual = 0.065796, Final residual = 2.9326e-06, No Iterations 1
smoothSolver:  Solving for Uy, Initial residual = 0.030501, Final residual = 5.333e-07, No Iterations 1
smoothSolver:  Solving for Uz, Initial residual = 0.062156, Final residual = 1.5034e-06, No Iterations 1
DICPCG:  Solving for p, Initial residual = 0.012595, Final residual = 0.00011533, No Iterations 29
DICPCG:  Solving for p, Initial residual = 0.0018046, Final residual = 1.2537e-05, No Iterations 26
time step continuity errors : sum local = 7.3248e-08, global = -2.337e-09, cumulative = -5.2028e-09
PIMPLE: iteration 3
smoothSolver:  Solving for Ux, Initial residual = 0.037657, Final residual = 1.0079e-09, No Iterations 2
smoothSolver:  Solving for Uy, Initial residual = 0.018685, Final residual = 1.6403e-10, No Iterations 2
smoothSolver:  Solving for Uz, Initial residual = 0.034846, Final residual = 4.5502e-10, No Iterations 2
DICPCG:  Solving for p, Initial residual = 0.013867, Final residual = 0.00012174, No Iterations 21
DICPCG:  Solving for p, Initial residual = 0.0011975, Final residual = 9.5671e-10, No Iterations 52
time step continuity errors : sum local = 7.8078e-12, global = 5.2155e-14, cumulative = -5.2027e-09
ExecutionTime = 2.59 s  ClockTime = 54 s

surfaceRegion PRESSURE_mantle write:
    none(mantle) of p = 0

surfaceRegion TRACTION_mantle write:
    none(mantle) of wallShearStress = (0 0 0)

I get past the save

Reading pointDisplacement

prev_runTime0.0000
GAMG:  Solving for cellDisplacementx, Initial residual = 0.19605, Final residual = 7.0842e-07, No Iterations 6
GAMG:  Solving for cellDisplacementy, Initial residual = 0.19, Final residual = 1.5538e-06, No Iterations 6
GAMG:  Solving for cellDisplacementz, Initial residual = 0.19089, Final residual = 6.4901e-07, No Iterations 6
PIMPLE: iteration 1
smoothSolver:  Solving for Ux, Initial residual = 0.00022223, Final residual = 4.5503e-09, No Iterations 1
smoothSolver:  Solving for Uy, Initial residual = 0.00039358, Final residual = 6.5781e-09, No Iterations 1
smoothSolver:  Solving for Uz, Initial residual = 0.00034515, Final residual = 5.6646e-09, No Iterations 1
DICPCG:  Solving for p, Initial residual = 0.062258, Final residual = 0.0003814, No Iterations 39
DICPCG:  Solving for p, Initial residual = 0.02211, Final residual = 0.00020198, No Iterations 7
time step continuity errors : sum local = 6.7395e-07, global = 1.926e-08, cumulative = 1.4057e-08
PIMPLE: iteration 2
smoothSolver:  Solving for Ux, Initial residual = 0.086239, Final residual = 1.9239e-06, No Iterations 1
smoothSolver:  Solving for Uy, Initial residual = 0.021529, Final residual = 4.7761e-07, No Iterations 1
smoothSolver:  Solving for Uz, Initial residual = 0.056916, Final residual = 1.5903e-06, No Iterations 1
DICPCG:  Solving for p, Initial residual = 0.014376, Final residual = 0.00011694, No Iterations 37
DICPCG:  Solving for p, Initial residual = 0.0022495, Final residual = 1.5515e-05, No Iterations 8
time step continuity errors : sum local = 5.9553e-08, global = 8.5202e-09, cumulative = 2.2578e-08
PIMPLE: iteration 3
smoothSolver:  Solving for Ux, Initial residual = 0.050498, Final residual = 6.7847e-10, No Iterations 2
smoothSolver:  Solving for Uy, Initial residual = 0.013244, Final residual = 1.4952e-10, No Iterations 2
smoothSolver:  Solving for Uz, Initial residual = 0.031511, Final residual = 4.7381e-10, No Iterations 2
DICPCG:  Solving for p, Initial residual = 0.020248, Final residual = 0.00013922, No Iterations 36
DICPCG:  Solving for p, Initial residual = 0.001735, Final residual = 7.5492e-10, No Iterations 53
time step continuity errors : sum local = 4.2502e-12, global = 1.8677e-14, cumulative = 2.2578e-08
ExecutionTime = 3.42 s  ClockTime = 73 s

surfaceRegion PRESSURE_mantle write:
    none(mantle) of p = 0

surfaceRegion TRACTION_mantle write:
    none(mantle) of wallShearStress = (0 0 0)

I get past the save

Reading pointDisplacement

prev_runTime0.0000
GAMG:  Solving for cellDisplacementx, Initial residual = 0.21025, Final residual = 2.0607e-06, No Iterations 5
GAMG:  Solving for cellDisplacementy, Initial residual = 0.36108, Final residual = 1.6255e-06, No Iterations 6
GAMG:  Solving for cellDisplacementz, Initial residual = 0.31764, Final residual = 1.4867e-06, No Iterations 6
PIMPLE: iteration 1
smoothSolver:  Solving for Ux, Initial residual = 0.00030942, Final residual = 1.1961e-08, No Iterations 1
smoothSolver:  Solving for Uy, Initial residual = 0.00048667, Final residual = 1.2433e-08, No Iterations 1
smoothSolver:  Solving for Uz, Initial residual = 0.00039353, Final residual = 1.1136e-08, No Iterations 1
DICPCG:  Solving for p, Initial residual = 0.12782, Final residual = 0.00089808, No Iterations 23
DICPCG:  Solving for p, Initial residual = 0.025719, Final residual = 0.00018313, No Iterations 12
time step continuity errors : sum local = 6.6878e-07, global = -1.1929e-07, cumulative = -9.6714e-08
PIMPLE: iteration 2
smoothSolver:  Solving for Ux, Initial residual = 0.028462, Final residual = 1.3772e-06, No Iterations 1
smoothSolver:  Solving for Uy, Initial residual = 0.098504, Final residual = 1.5485e-06, No Iterations 1
smoothSolver:  Solving for Uz, Initial residual = 0.090979, Final residual = 2.5835e-06, No Iterations 1
DICPCG:  Solving for p, Initial residual = 0.01962, Final residual = 0.00016517, No Iterations 22
DICPCG:  Solving for p, Initial residual = 0.0028695, Final residual = 2.5444e-05, No Iterations 20
time step continuity errors : sum local = 9.1506e-08, global = -3.1099e-09, cumulative = -9.9824e-08
PIMPLE: iteration 3
smoothSolver:  Solving for Ux, Initial residual = 0.015707, Final residual = 4.6785e-10, No Iterations 2
smoothSolver:  Solving for Uy, Initial residual = 0.062206, Final residual = 5.1488e-10, No Iterations 2
smoothSolver:  Solving for Uz, Initial residual = 0.060321, Final residual = 9.5072e-10, No Iterations 2
DICPCG:  Solving for p, Initial residual = 0.015781, Final residual = 0.00012369, No Iterations 22
DICPCG:  Solving for p, Initial residual = 0.0017777, Final residual = 9.1511e-10, No Iterations 52
time step continuity errors : sum local = 4.6297e-12, global = -2.2603e-15, cumulative = -9.9824e-08
ExecutionTime = 4.06 s  ClockTime = 87 s

surfaceRegion PRESSURE_mantle write:
    none(mantle) of p = 0

surfaceRegion TRACTION_mantle write:
    none(mantle) of wallShearStress = (0 0 0)

I get past the save

Reading pointDisplacement

prev_runTime0.0000
GAMG:  Solving for cellDisplacementx, Initial residual = 0.10601, Final residual = 8.2128e-07, No Iterations 6
GAMG:  Solving for cellDisplacementy, Initial residual = 0.18479, Final residual = 1.2141e-06, No Iterations 7
GAMG:  Solving for cellDisplacementz, Initial residual = 0.18004, Final residual = 5.3945e-07, No Iterations 7
PIMPLE: iteration 1
smoothSolver:  Solving for Ux, Initial residual = 0.00010389, Final residual = 2.3422e-09, No Iterations 1
smoothSolver:  Solving for Uy, Initial residual = 0.00029417, Final residual = 7.1022e-09, No Iterations 1
smoothSolver:  Solving for Uz, Initial residual = 0.00029001, Final residual = 7.8053e-09, No Iterations 1
DICPCG:  Solving for p, Initial residual = 0.059556, Final residual = 0.00041569, No Iterations 38
DICPCG:  Solving for p, Initial residual = 0.0088509, Final residual = 4.254e-05, No Iterations 8
time step continuity errors : sum local = 1.7937e-07, global = 2.0324e-08, cumulative = -7.95e-08
PIMPLE: iteration 2
smoothSolver:  Solving for Ux, Initial residual = 0.050318, Final residual = 2.3e-06, No Iterations 1
smoothSolver:  Solving for Uy, Initial residual = 0.036935, Final residual = 5.3075e-07, No Iterations 1
smoothSolver:  Solving for Uz, Initial residual = 0.044748, Final residual = 5.4237e-07, No Iterations 1
DICPCG:  Solving for p, Initial residual = 0.0078562, Final residual = 6.85e-05, No Iterations 37
DICPCG:  Solving for p, Initial residual = 0.0010942, Final residual = 6.9213e-06, No Iterations 8
time step continuity errors : sum local = 2.8028e-08, global = 3.9028e-09, cumulative = -7.5597e-08
PIMPLE: iteration 3
smoothSolver:  Solving for Ux, Initial residual = 0.028018, Final residual = 7.9012e-10, No Iterations 2
smoothSolver:  Solving for Uy, Initial residual = 0.021736, Final residual = 1.4539e-10, No Iterations 2
smoothSolver:  Solving for Uz, Initial residual = 0.026554, Final residual = 1.3467e-10, No Iterations 2
DICPCG:  Solving for p, Initial residual = 0.011882, Final residual = 0.00011448, No Iterations 31
DICPCG:  Solving for p, Initial residual = 0.00094865, Final residual = 8.4949e-10, No Iterations 51
time step continuity errors : sum local = 4.7694e-12, global = -1.1574e-13, cumulative = -7.5598e-08
ExecutionTime = 5.16 s  ClockTime = 107 s

surfaceRegion PRESSURE_mantle write:
    none(mantle) of p = 0

surfaceRegion TRACTION_mantle write:
    none(mantle) of wallShearStress = (0 0 0)

I get past the save

Reading pointDisplacement

prev_runTime0.0000
GAMG:  Solving for cellDisplacementx, Initial residual = 0.13899, Final residual = 9.5935e-07, No Iterations 6
GAMG:  Solving for cellDisplacementy, Initial residual = 0.21216, Final residual = 8.2013e-07, No Iterations 7
GAMG:  Solving for cellDisplacementz, Initial residual = 0.21456, Final residual = 1.2448e-06, No Iterations 6
PIMPLE: iteration 1
smoothSolver:  Solving for Ux, Initial residual = 0.00013975, Final residual = 5.1385e-09, No Iterations 1
smoothSolver:  Solving for Uy, Initial residual = 0.00025692, Final residual = 4.1508e-09, No Iterations 1
smoothSolver:  Solving for Uz, Initial residual = 0.00024778, Final residual = 3.5049e-09, No Iterations 1
DICPCG:  Solving for p, Initial residual = 0.061549, Final residual = 0.00052128, No Iterations 39
DICPCG:  Solving for p, Initial residual = 0.02807, Final residual = 0.00022588, No Iterations 7
time step continuity errors : sum local = 4.1412e-07, global = -7.5933e-09, cumulative = -8.3191e-08
PIMPLE: iteration 2
smoothSolver:  Solving for Ux, Initial residual = 0.082566, Final residual = 9.5195e-07, No Iterations 1
smoothSolver:  Solving for Uy, Initial residual = 0.028525, Final residual = 4.5029e-07, No Iterations 1
smoothSolver:  Solving for Uz, Initial residual = 0.075144, Final residual = 4.3556e-07, No Iterations 1
DICPCG:  Solving for p, Initial residual = 0.015774, Final residual = 0.00011233, No Iterations 38
DICPCG:  Solving for p, Initial residual = 0.0025192, Final residual = 2.4369e-05, No Iterations 7
time step continuity errors : sum local = 5.522e-08, global = -2.3943e-09, cumulative = -8.5585e-08
PIMPLE: iteration 3
smoothSolver:  Solving for Ux, Initial residual = 0.052958, Final residual = 3.3229e-10, No Iterations 2
smoothSolver:  Solving for Uy, Initial residual = 0.017075, Final residual = 1.4095e-10, No Iterations 2
smoothSolver:  Solving for Uz, Initial residual = 0.04194, Final residual = 1.0874e-10, No Iterations 2
DICPCG:  Solving for p, Initial residual = 0.020655, Final residual = 0.00019859, No Iterations 36
DICPCG:  Solving for p, Initial residual = 0.0018903, Final residual = 5.6113e-10, No Iterations 53
time step continuity errors : sum local = 1.9146e-12, global = 1.9028e-14, cumulative = -8.5585e-08
ExecutionTime = 6.12 s  ClockTime = 126 s

surfaceRegion PRESSURE_mantle write:
    none(mantle) of p = 0

surfaceRegion TRACTION_mantle write:
    none(mantle) of wallShearStress = (0 0 0)

I get past the save

Reading pointDisplacement

prev_runTime0.0000
GAMG:  Solving for cellDisplacementx, Initial residual = 0.12869, Final residual = 6.3034e-07, No Iterations 5
GAMG:  Solving for cellDisplacementy, Initial residual = 0.16126, Final residual = 3.9541e-07, No Iterations 6
GAMG:  Solving for cellDisplacementz, Initial residual = 0.15197, Final residual = 3.2632e-07, No Iterations 6
PIMPLE: iteration 1
smoothSolver:  Solving for Ux, Initial residual = 0.00015212, Final residual = 3.0691e-09, No Iterations 1
smoothSolver:  Solving for Uy, Initial residual = 0.0001805, Final residual = 4.3219e-09, No Iterations 1
smoothSolver:  Solving for Uz, Initial residual = 0.00018791, Final residual = 3.1018e-09, No Iterations 1
DICPCG:  Solving for p, Initial residual = 0.071683, Final residual = 0.0004119, No Iterations 39
DICPCG:  Solving for p, Initial residual = 0.016289, Final residual = 0.00014057, No Iterations 6
time step continuity errors : sum local = 2.133e-07, global = -8.8466e-09, cumulative = -9.4432e-08
PIMPLE: iteration 2
smoothSolver:  Solving for Ux, Initial residual = 0.13679, Final residual = 2.7889e-06, No Iterations 1
smoothSolver:  Solving for Uy, Initial residual = 0.034081, Final residual = 5.0874e-07, No Iterations 1
smoothSolver:  Solving for Uz, Initial residual = 0.023204, Final residual = 3.2194e-07, No Iterations 1
DICPCG:  Solving for p, Initial residual = 0.017512, Final residual = 0.00012946, No Iterations 38
DICPCG:  Solving for p, Initial residual = 0.0022174, Final residual = 1.9414e-05, No Iterations 7
time step continuity errors : sum local = 2.9118e-08, global = -6.7238e-10, cumulative = -9.5104e-08
PIMPLE: iteration 3
smoothSolver:  Solving for Ux, Initial residual = 0.067674, Final residual = 8.2285e-10, No Iterations 2
smoothSolver:  Solving for Uy, Initial residual = 0.020977, Final residual = 1.866e-10, No Iterations 2
smoothSolver:  Solving for Uz, Initial residual = 0.014066, Final residual = 1.1634e-10, No Iterations 2
DICPCG:  Solving for p, Initial residual = 0.028904, Final residual = 0.00022533, No Iterations 36
DICPCG:  Solving for p, Initial residual = 0.0021179, Final residual = 5.0298e-10, No Iterations 54
time step continuity errors : sum local = 1.0247e-12, global = -2.223e-14, cumulative = -9.5104e-08
ExecutionTime = 6.96 s  ClockTime = 143 s

surfaceRegion PRESSURE_mantle write:
    none(mantle) of p = 0

surfaceRegion TRACTION_mantle write:
    none(mantle) of wallShearStress = (0 0 0)

I get past the save

Reading pointDisplacement

prev_runTime0.0000
GAMG:  Solving for cellDisplacementx, Initial residual = 0.11998, Final residual = 8.8934e-07, No Iterations 6
GAMG:  Solving for cellDisplacementy, Initial residual = 0.29218, Final residual = 1.9909e-06, No Iterations 6
GAMG:  Solving for cellDisplacementz, Initial residual = 0.29909, Final residual = 1.6893e-06, No Iterations 6
PIMPLE: iteration 1
smoothSolver:  Solving for Ux, Initial residual = 0.00022156, Final residual = 1.0732e-08, No Iterations 1
smoothSolver:  Solving for Uy, Initial residual = 0.00026594, Final residual = 1.0584e-08, No Iterations 1
smoothSolver:  Solving for Uz, Initial residual = 0.00020278, Final residual = 7.737e-09, No Iterations 1
DICPCG:  Solving for p, Initial residual = 0.17792, Final residual = 0.0014233, No Iterations 38
DICPCG:  Solving for p, Initial residual = 0.029606, Final residual = 0.0002191, No Iterations 7
time step continuity errors : sum local = 2.9163e-07, global = 5.7601e-09, cumulative = -8.9344e-08
PIMPLE: iteration 2
smoothSolver:  Solving for Ux, Initial residual = 0.10264, Final residual = 1.4023e-06, No Iterations 1
smoothSolver:  Solving for Uy, Initial residual = 0.081238, Final residual = 1.0765e-06, No Iterations 1
smoothSolver:  Solving for Uz, Initial residual = 0.068434, Final residual = 9.1261e-07, No Iterations 1
DICPCG:  Solving for p, Initial residual = 0.027191, Final residual = 0.00026009, No Iterations 37
DICPCG:  Solving for p, Initial residual = 0.0037648, Final residual = 3.143e-05, No Iterations 8
time step continuity errors : sum local = 3.7443e-08, global = 3.8505e-10, cumulative = -8.8959e-08
PIMPLE: iteration 3
smoothSolver:  Solving for Ux, Initial residual = 0.060506, Final residual = 5.6355e-10, No Iterations 2
smoothSolver:  Solving for Uy, Initial residual = 0.053024, Final residual = 4.0564e-10, No Iterations 2
smoothSolver:  Solving for Uz, Initial residual = 0.044194, Final residual = 3.3729e-10, No Iterations 2
DICPCG:  Solving for p, Initial residual = 0.024891, Final residual = 0.00024742, No Iterations 36
DICPCG:  Solving for p, Initial residual = 0.0023418, Final residual = 6.5799e-10, No Iterations 54
time step continuity errors : sum local = 1.0885e-12, global = 6.9567e-16, cumulative = -8.8959e-08
ExecutionTime = 8.07 s  ClockTime = 164 s

surfaceRegion PRESSURE_mantle write:
    none(mantle) of p = 0

surfaceRegion TRACTION_mantle write:
    none(mantle) of wallShearStress = (0 0 0)

I get past the save

Reading pointDisplacement

prev_runTime0.0000
GAMG:  Solving for cellDisplacementx, Initial residual = 0.090118, Final residual = 1.3599e-07, No Iterations 6
GAMG:  Solving for cellDisplacementy, Initial residual = 0.18219, Final residual = 4.6143e-07, No Iterations 6
GAMG:  Solving for cellDisplacementz, Initial residual = 0.19049, Final residual = 1.445e-06, No Iterations 5
PIMPLE: iteration 1
smoothSolver:  Solving for Ux, Initial residual = 0.0001389, Final residual = 3.314e-09, No Iterations 1
smoothSolver:  Solving for Uy, Initial residual = 0.00020919, Final residual = 7.9929e-09, No Iterations 1
smoothSolver:  Solving for Uz, Initial residual = 0.00016349, Final residual = 5.4902e-09, No Iterations 1
DICPCG:  Solving for p, Initial residual = 0.10399, Final residual = 0.00087308, No Iterations 38
DICPCG:  Solving for p, Initial residual = 0.017079, Final residual = 0.00013204, No Iterations 7
time step continuity errors : sum local = 1.5911e-07, global = -6.7031e-09, cumulative = -9.5662e-08
PIMPLE: iteration 2
smoothSolver:  Solving for Ux, Initial residual = 0.082905, Final residual = 2.5672e-06, No Iterations 1
smoothSolver:  Solving for Uy, Initial residual = 0.033938, Final residual = 6.8965e-07, No Iterations 1
smoothSolver:  Solving for Uz, Initial residual = 0.04887, Final residual = 7.4414e-07, No Iterations 1
DICPCG:  Solving for p, Initial residual = 0.016077, Final residual = 0.00015509, No Iterations 37
DICPCG:  Solving for p, Initial residual = 0.0021408, Final residual = 1.7558e-05, No Iterations 8
time step continuity errors : sum local = 2.0733e-08, global = -1.1702e-09, cumulative = -9.6832e-08
PIMPLE: iteration 3
smoothSolver:  Solving for Ux, Initial residual = 0.042492, Final residual = 7.6873e-10, No Iterations 2
smoothSolver:  Solving for Uy, Initial residual = 0.020106, Final residual = 2.251e-10, No Iterations 2
smoothSolver:  Solving for Uz, Initial residual = 0.0292, Final residual = 2.463e-10, No Iterations 2
DICPCG:  Solving for p, Initial residual = 0.023414, Final residual = 0.00022825, No Iterations 36
DICPCG:  Solving for p, Initial residual = 0.0019484, Final residual = 8.5744e-10, No Iterations 53
time step continuity errors : sum local = 1.3943e-12, global = 1.3875e-14, cumulative = -9.6832e-08
ExecutionTime = 8.87 s  ClockTime = 181 s

surfaceRegion PRESSURE_mantle write:
    none(mantle) of p = 0

surfaceRegion TRACTION_mantle write:
    none(mantle) of wallShearStress = (0 0 0)

I get past the save

Reading pointDisplacement

prev_runTime0.0000
GAMG:  Solving for cellDisplacementx, Initial residual = 0.06405, Final residual = 4.8665e-07, No Iterations 6
GAMG:  Solving for cellDisplacementy, Initial residual = 0.13822, Final residual = 4.3528e-07, No Iterations 7
GAMG:  Solving for cellDisplacementz, Initial residual = 0.14059, Final residual = 1.1486e-06, No Iterations 6
PIMPLE: iteration 1
smoothSolver:  Solving for Ux, Initial residual = 0.00011199, Final residual = 2.7256e-09, No Iterations 1
smoothSolver:  Solving for Uy, Initial residual = 0.00014325, Final residual = 5.819e-09, No Iterations 1
smoothSolver:  Solving for Uz, Initial residual = 0.00012707, Final residual = 4.0246e-09, No Iterations 1
DICPCG:  Solving for p, Initial residual = 0.083122, Final residual = 0.00071255, No Iterations 37
DICPCG:  Solving for p, Initial residual = 0.01102, Final residual = 8.4454e-05, No Iterations 10
time step continuity errors : sum local = 1.0928e-07, global = 1.7482e-09, cumulative = -9.5084e-08
PIMPLE: iteration 2
smoothSolver:  Solving for Ux, Initial residual = 0.076338, Final residual = 1.3306e-06, No Iterations 1
smoothSolver:  Solving for Uy, Initial residual = 0.022293, Final residual = 4.7937e-07, No Iterations 1
smoothSolver:  Solving for Uz, Initial residual = 0.035073, Final residual = 6.7308e-07, No Iterations 1
DICPCG:  Solving for p, Initial residual = 0.012332, Final residual = 0.00012083, No Iterations 35
DICPCG:  Solving for p, Initial residual = 0.0014816, Final residual = 1.4154e-05, No Iterations 10
time step continuity errors : sum local = 1.7332e-08, global = 4.3637e-10, cumulative = -9.4648e-08
PIMPLE: iteration 3
smoothSolver:  Solving for Ux, Initial residual = 0.041503, Final residual = 3.6995e-10, No Iterations 2
smoothSolver:  Solving for Uy, Initial residual = 0.013644, Final residual = 1.7337e-10, No Iterations 2
smoothSolver:  Solving for Uz, Initial residual = 0.020638, Final residual = 2.2461e-10, No Iterations 2
DICPCG:  Solving for p, Initial residual = 0.020806, Final residual = 0.0001456, No Iterations 34
DICPCG:  Solving for p, Initial residual = 0.0015459, Final residual = 7.5117e-10, No Iterations 53
time step continuity errors : sum local = 1.2466e-12, global = 2.3758e-15, cumulative = -9.4648e-08
ExecutionTime = 9.57 s  ClockTime = 198 s

surfaceRegion PRESSURE_mantle write:
    none(mantle) of p = 0

surfaceRegion TRACTION_mantle write:
    none(mantle) of wallShearStress = (0 0 0)

I get past the save

Reading pointDisplacement

prev_runTime0.0000
GAMG:  Solving for cellDisplacementx, Initial residual = 0.061257, Final residual = 4.5767e-07, No Iterations 7
GAMG:  Solving for cellDisplacementy, Initial residual = 0.10674, Final residual = 9.6673e-07, No Iterations 6
GAMG:  Solving for cellDisplacementz, Initial residual = 0.10142, Final residual = 7.9828e-07, No Iterations 6
PIMPLE: iteration 1
smoothSolver:  Solving for Ux, Initial residual = 0.00010106, Final residual = 3.1172e-09, No Iterations 1
smoothSolver:  Solving for Uy, Initial residual = 0.00011514, Final residual = 3.9534e-09, No Iterations 1
smoothSolver:  Solving for Uz, Initial residual = 0.00010458, Final residual = 3.462e-09, No Iterations 1
DICPCG:  Solving for p, Initial residual = 0.06211, Final residual = 0.00054682, No Iterations 35
DICPCG:  Solving for p, Initial residual = 0.0068418, Final residual = 6.5671e-05, No Iterations 10
time step continuity errors : sum local = 8.8241e-08, global = -2.4805e-10, cumulative = -9.4896e-08
PIMPLE: iteration 2
smoothSolver:  Solving for Ux, Initial residual = 0.033915, Final residual = 9.2265e-07, No Iterations 1
smoothSolver:  Solving for Uy, Initial residual = 0.025747, Final residual = 3.1808e-07, No Iterations 1
smoothSolver:  Solving for Uz, Initial residual = 0.019197, Final residual = 2.3269e-07, No Iterations 1
DICPCG:  Solving for p, Initial residual = 0.0085505, Final residual = 6.4693e-05, No Iterations 34
DICPCG:  Solving for p, Initial residual = 0.00088437, Final residual = 8.3818e-06, No Iterations 9
time step continuity errors : sum local = 1.0895e-08, global = 1.382e-10, cumulative = -9.4758e-08
PIMPLE: iteration 3
smoothSolver:  Solving for Ux, Initial residual = 0.018691, Final residual = 3.0542e-10, No Iterations 2
smoothSolver:  Solving for Uy, Initial residual = 0.01538, Final residual = 9.6741e-11, No Iterations 2
smoothSolver:  Solving for Uz, Initial residual = 0.011457, Final residual = 7.507e-11, No Iterations 2
DICPCG:  Solving for p, Initial residual = 0.018118, Final residual = 0.00016621, No Iterations 33
DICPCG:  Solving for p, Initial residual = 0.0012728, Final residual = 7.0579e-10, No Iterations 53
time step continuity errors : sum local = 1.2625e-12, global = 3.657e-15, cumulative = -9.4758e-08
ExecutionTime = 10.1 s  ClockTime = 212 s

surfaceRegion PRESSURE_mantle write:
    none(mantle) of p = 0

surfaceRegion TRACTION_mantle write:
    none(mantle) of wallShearStress = (0 0 0)

I get past the save

Reading pointDisplacement

prev_runTime0.0000
GAMG:  Solving for cellDisplacementx, Initial residual = 0.065213, Final residual = 3.6108e-07, No Iterations 7
GAMG:  Solving for cellDisplacementy, Initial residual = 0.13602, Final residual = 9.868e-07, No Iterations 7
GAMG:  Solving for cellDisplacementz, Initial residual = 0.13665, Final residual = 4.1922e-07, No Iterations 7
PIMPLE: iteration 1
smoothSolver:  Solving for Ux, Initial residual = 6.2612e-05, Final residual = 2.6815e-09, No Iterations 1
smoothSolver:  Solving for Uy, Initial residual = 0.00015282, Final residual = 7.0969e-09, No Iterations 1
smoothSolver:  Solving for Uz, Initial residual = 0.00011856, Final residual = 5.3257e-09, No Iterations 1
DICPCG:  Solving for p, Initial residual = 0.063344, Final residual = 0.00045712, No Iterations 35
DICPCG:  Solving for p, Initial residual = 0.010457, Final residual = 0.00010419, No Iterations 7
time step continuity errors : sum local = 1.216e-07, global = -6.7526e-09, cumulative = -1.0151e-07
PIMPLE: iteration 2
smoothSolver:  Solving for Ux, Initial residual = 0.021346, Final residual = 2.6104e-07, No Iterations 1
smoothSolver:  Solving for Uy, Initial residual = 0.037004, Final residual = 6.4086e-07, No Iterations 1
smoothSolver:  Solving for Uz, Initial residual = 0.033275, Final residual = 6.9865e-07, No Iterations 1
DICPCG:  Solving for p, Initial residual = 0.009907, Final residual = 5.5361e-05, No Iterations 35
DICPCG:  Solving for p, Initial residual = 0.0011852, Final residual = 1.0137e-05, No Iterations 7
time step continuity errors : sum local = 1.1935e-08, global = -7.6498e-10, cumulative = -1.0228e-07
PIMPLE: iteration 3
smoothSolver:  Solving for Ux, Initial residual = 0.012117, Final residual = 6.5982e-11, No Iterations 2
smoothSolver:  Solving for Uy, Initial residual = 0.02168, Final residual = 1.9207e-10, No Iterations 2
smoothSolver:  Solving for Uz, Initial residual = 0.020118, Final residual = 2.255e-10, No Iterations 2
DICPCG:  Solving for p, Initial residual = 0.018726, Final residual = 0.00014448, No Iterations 32
DICPCG:  Solving for p, Initial residual = 0.0013775, Final residual = 7.9709e-10, No Iterations 53
time step continuity errors : sum local = 1.3156e-12, global = 1.2603e-14, cumulative = -1.0228e-07
ExecutionTime = 10.88 s  ClockTime = 228 s

surfaceRegion PRESSURE_mantle write:
    none(mantle) of p = 0

surfaceRegion TRACTION_mantle write:
    none(mantle) of wallShearStress = (0 0 0)

I get past the save

Reading pointDisplacement

prev_runTime0.0000
GAMG:  Solving for cellDisplacementx, Initial residual = 0.055335, Final residual = 9.5937e-08, No Iterations 6
GAMG:  Solving for cellDisplacementy, Initial residual = 0.089828, Final residual = 1.5974e-07, No Iterations 6
GAMG:  Solving for cellDisplacementz, Initial residual = 0.091615, Final residual = 5.3081e-07, No Iterations 5
PIMPLE: iteration 1
smoothSolver:  Solving for Ux, Initial residual = 4.0978e-05, Final residual = 1.3592e-09, No Iterations 1
smoothSolver:  Solving for Uy, Initial residual = 0.00012043, Final residual = 4.5447e-09, No Iterations 1
smoothSolver:  Solving for Uz, Initial residual = 9.7475e-05, Final residual = 3.4562e-09, No Iterations 1
DICPCG:  Solving for p, Initial residual = 0.04927, Final residual = 0.00045816, No Iterations 35
DICPCG:  Solving for p, Initial residual = 0.0078933, Final residual = 5.5126e-05, No Iterations 7
time step continuity errors : sum local = 6.0552e-08, global = 2.5824e-09, cumulative = -9.9693e-08
PIMPLE: iteration 2
smoothSolver:  Solving for Ux, Initial residual = 0.020617, Final residual = 2.7328e-07, No Iterations 1
smoothSolver:  Solving for Uy, Initial residual = 0.022479, Final residual = 4.1318e-07, No Iterations 1
smoothSolver:  Solving for Uz, Initial residual = 0.028408, Final residual = 4.2904e-07, No Iterations 1
DICPCG:  Solving for p, Initial residual = 0.0081857, Final residual = 5.5306e-05, No Iterations 35
DICPCG:  Solving for p, Initial residual = 0.0009064, Final residual = 6.572e-06, No Iterations 7
time step continuity errors : sum local = 7.1617e-09, global = 3.3027e-10, cumulative = -9.9362e-08
PIMPLE: iteration 3
smoothSolver:  Solving for Ux, Initial residual = 0.011804, Final residual = 8.8067e-11, No Iterations 2
smoothSolver:  Solving for Uy, Initial residual = 0.013169, Final residual = 1.34e-10, No Iterations 2
smoothSolver:  Solving for Uz, Initial residual = 0.016734, Final residual = 1.2509e-10, No Iterations 2
DICPCG:  Solving for p, Initial residual = 0.019338, Final residual = 0.00018058, No Iterations 32
DICPCG:  Solving for p, Initial residual = 0.0013809, Final residual = 9.0878e-10, No Iterations 53
time step continuity errors : sum local = 1.3758e-12, global = 1.2846e-14, cumulative = -9.9362e-08
ExecutionTime = 11.82 s  ClockTime = 247 s

surfaceRegion PRESSURE_mantle write:
    none(mantle) of p = 0

surfaceRegion TRACTION_mantle write:
    none(mantle) of wallShearStress = (0 0 0)

I get past the save

Reading pointDisplacement

prev_runTime0.0000
GAMG:  Solving for cellDisplacementx, Initial residual = 0.033197, Final residual = 2.3543e-07, No Iterations 5
GAMG:  Solving for cellDisplacementy, Initial residual = 0.057987, Final residual = 5.5015e-07, No Iterations 5
GAMG:  Solving for cellDisplacementz, Initial residual = 0.052905, Final residual = 7.4823e-08, No Iterations 6
PIMPLE: iteration 1
smoothSolver:  Solving for Ux, Initial residual = 3.8189e-05, Final residual = 1.5136e-09, No Iterations 1
smoothSolver:  Solving for Uy, Initial residual = 8.9949e-05, Final residual = 4.0895e-09, No Iterations 1
smoothSolver:  Solving for Uz, Initial residual = 8.0173e-05, Final residual = 3.3377e-09, No Iterations 1
DICPCG:  Solving for p, Initial residual = 0.039795, Final residual = 0.00036847, No Iterations 35
DICPCG:  Solving for p, Initial residual = 0.0049037, Final residual = 4.4366e-05, No Iterations 7
time step continuity errors : sum local = 4.7778e-08, global = 2.0604e-09, cumulative = -9.7302e-08
PIMPLE: iteration 2
smoothSolver:  Solving for Ux, Initial residual = 0.012801, Final residual = 1.3673e-07, No Iterations 1
smoothSolver:  Solving for Uy, Initial residual = 0.02017, Final residual = 4.9393e-07, No Iterations 1
smoothSolver:  Solving for Uz, Initial residual = 0.012733, Final residual = 4.0881e-07, No Iterations 1
DICPCG:  Solving for p, Initial residual = 0.0062535, Final residual = 6.2522e-05, No Iterations 34
DICPCG:  Solving for p, Initial residual = 0.00060768, Final residual = 5.6085e-06, No Iterations 11
time step continuity errors : sum local = 6.0148e-09, global = -3.1132e-11, cumulative = -9.7333e-08
PIMPLE: iteration 3
smoothSolver:  Solving for Ux, Initial residual = 0.007388, Final residual = 4.2991e-11, No Iterations 2
smoothSolver:  Solving for Uy, Initial residual = 0.011928, Final residual = 1.7373e-10, No Iterations 2
smoothSolver:  Solving for Uz, Initial residual = 0.0075826, Final residual = 1.4687e-10, No Iterations 2
DICPCG:  Solving for p, Initial residual = 0.018392, Final residual = 0.00017475, No Iterations 28
DICPCG:  Solving for p, Initial residual = 0.0012026, Final residual = 6.9407e-10, No Iterations 53
time step continuity errors : sum local = 1.0361e-12, global = 2.2962e-14, cumulative = -9.7333e-08
ExecutionTime = 12.68 s  ClockTime = 266 s

surfaceRegion PRESSURE_mantle write:
    none(mantle) of p = 0

surfaceRegion TRACTION_mantle write:
    none(mantle) of wallShearStress = (0 0 0)

I get past the save

Reading pointDisplacement

prev_runTime0.0000
GAMG:  Solving for cellDisplacementx, Initial residual = 0.031068, Final residual = 2.4412e-07, No Iterations 7
GAMG:  Solving for cellDisplacementy, Initial residual = 0.050896, Final residual = 1.8225e-07, No Iterations 7
GAMG:  Solving for cellDisplacementz, Initial residual = 0.046462, Final residual = 2.401e-07, No Iterations 7
PIMPLE: iteration 1
smoothSolver:  Solving for Ux, Initial residual = 3.3522e-05, Final residual = 1.863e-09, No Iterations 1
smoothSolver:  Solving for Uy, Initial residual = 8.8547e-05, Final residual = 3.9064e-09, No Iterations 1
smoothSolver:  Solving for Uz, Initial residual = 6.8915e-05, Final residual = 3.0239e-09, No Iterations 1
DICPCG:  Solving for p, Initial residual = 0.035026, Final residual = 0.00031915, No Iterations 25
DICPCG:  Solving for p, Initial residual = 0.0044133, Final residual = 4.0547e-05, No Iterations 30
time step continuity errors : sum local = 4.2945e-08, global = 8.3812e-10, cumulative = -9.6495e-08
PIMPLE: iteration 2
smoothSolver:  Solving for Ux, Initial residual = 0.0060733, Final residual = 7.5303e-08, No Iterations 1
smoothSolver:  Solving for Uy, Initial residual = 0.018777, Final residual = 4.0522e-07, No Iterations 1
smoothSolver:  Solving for Uz, Initial residual = 0.01155, Final residual = 3.3521e-07, No Iterations 1
DICPCG:  Solving for p, Initial residual = 0.0056556, Final residual = 5.0542e-05, No Iterations 21
DICPCG:  Solving for p, Initial residual = 0.00054181, Final residual = 5.4021e-06, No Iterations 24
time step continuity errors : sum local = 5.7049e-09, global = -9.0777e-12, cumulative = -9.6504e-08
PIMPLE: iteration 3
smoothSolver:  Solving for Ux, Initial residual = 0.0035444, Final residual = 7.1165e-08, No Iterations 1
smoothSolver:  Solving for Uy, Initial residual = 0.01112, Final residual = 1.3759e-10, No Iterations 2
smoothSolver:  Solving for Uz, Initial residual = 0.0069112, Final residual = 1.2356e-10, No Iterations 2
DICPCG:  Solving for p, Initial residual = 0.017909, Final residual = 0.0001787, No Iterations 11
DICPCG:  Solving for p, Initial residual = 0.0012082, Final residual = 8.5645e-10, No Iterations 53
time step continuity errors : sum local = 1.2605e-12, global = 7.1229e-16, cumulative = -9.6504e-08
ExecutionTime = 13.52 s  ClockTime = 282 s

surfaceRegion PRESSURE_mantle write:
    none(mantle) of p = 0

surfaceRegion TRACTION_mantle write:
    none(mantle) of wallShearStress = (0 0 0)

I get past the save

Reading pointDisplacement

prev_runTime0.0000
GAMG:  Solving for cellDisplacementx, Initial residual = 0.021055, Final residual = 3.6671e-08, No Iterations 6
GAMG:  Solving for cellDisplacementy, Initial residual = 0.039181, Final residual = 6.5336e-08, No Iterations 6
GAMG:  Solving for cellDisplacementz, Initial residual = 0.036703, Final residual = 3.283e-07, No Iterations 5
PIMPLE: iteration 1
smoothSolver:  Solving for Ux, Initial residual = 2.6087e-05, Final residual = 1.6298e-09, No Iterations 1
smoothSolver:  Solving for Uy, Initial residual = 8.7744e-05, Final residual = 3.9717e-09, No Iterations 1
smoothSolver:  Solving for Uz, Initial residual = 6.4927e-05, Final residual = 3.1317e-09, No Iterations 1
DICPCG:  Solving for p, Initial residual = 0.030043, Final residual = 0.00022091, No Iterations 35
DICPCG:  Solving for p, Initial residual = 0.0035891, Final residual = 3.2252e-05, No Iterations 10
time step continuity errors : sum local = 3.3656e-08, global = -3.5195e-10, cumulative = -9.6856e-08
PIMPLE: iteration 2
smoothSolver:  Solving for Ux, Initial residual = 0.0091792, Final residual = 7.1044e-08, No Iterations 1
smoothSolver:  Solving for Uy, Initial residual = 0.015406, Final residual = 4.0331e-07, No Iterations 1
smoothSolver:  Solving for Uz, Initial residual = 0.0091573, Final residual = 2.8314e-07, No Iterations 1
DICPCG:  Solving for p, Initial residual = 0.0050152, Final residual = 3.5832e-05, No Iterations 34
DICPCG:  Solving for p, Initial residual = 0.00046948, Final residual = 3.0659e-06, No Iterations 8
time step continuity errors : sum local = 3.1907e-09, global = 7.4122e-11, cumulative = -9.6782e-08
PIMPLE: iteration 3
smoothSolver:  Solving for Ux, Initial residual = 0.0051624, Final residual = 6.8517e-08, No Iterations 1
smoothSolver:  Solving for Uy, Initial residual = 0.0092699, Final residual = 1.4517e-10, No Iterations 2
smoothSolver:  Solving for Uz, Initial residual = 0.0056013, Final residual = 1.0806e-10, No Iterations 2
DICPCG:  Solving for p, Initial residual = 0.017541, Final residual = 0.00016187, No Iterations 27
DICPCG:  Solving for p, Initial residual = 0.0011646, Final residual = 6.3722e-10, No Iterations 53
time step continuity errors : sum local = 9.2523e-13, global = -6.3063e-15, cumulative = -9.6782e-08
ExecutionTime = 14.2 s  ClockTime = 296 s

surfaceRegion PRESSURE_mantle write:
    none(mantle) of p = 0

surfaceRegion TRACTION_mantle write:
    none(mantle) of wallShearStress = (0 0 0)

I get past the save

Reading pointDisplacement

prev_runTime0.0000
GAMG:  Solving for cellDisplacementx, Initial residual = 0.013453, Final residual = 1.3258e-07, No Iterations 5
GAMG:  Solving for cellDisplacementy, Initial residual = 0.02364, Final residual = 1.6631e-07, No Iterations 5
GAMG:  Solving for cellDisplacementz, Initial residual = 0.021734, Final residual = 4.2354e-08, No Iterations 6
PIMPLE: iteration 1
smoothSolver:  Solving for Ux, Initial residual = 2.7307e-05, Final residual = 1.3371e-09, No Iterations 1
smoothSolver:  Solving for Uy, Initial residual = 7.8818e-05, Final residual = 4.3141e-09, No Iterations 1
smoothSolver:  Solving for Uz, Initial residual = 5.6686e-05, Final residual = 3.1863e-09, No Iterations 1
DICPCG:  Solving for p, Initial residual = 0.026927, Final residual = 0.0002483, No Iterations 32
DICPCG:  Solving for p, Initial residual = 0.002893, Final residual = 2.7784e-05, No Iterations 12
time step continuity errors : sum local = 2.9052e-08, global = 3.9094e-09, cumulative = -9.2872e-08
PIMPLE: iteration 2
smoothSolver:  Solving for Ux, Initial residual = 0.0039765, Final residual = 1.1293e-07, No Iterations 1
smoothSolver:  Solving for Uy, Initial residual = 0.01333, Final residual = 3.8269e-07, No Iterations 1
smoothSolver:  Solving for Uz, Initial residual = 0.0068056, Final residual = 2.7431e-07, No Iterations 1
DICPCG:  Solving for p, Initial residual = 0.0047019, Final residual = 3.9781e-05, No Iterations 27
DICPCG:  Solving for p, Initial residual = 0.00038491, Final residual = 2.9261e-06, No Iterations 11
time step continuity errors : sum local = 3.0478e-09, global = 5.5734e-10, cumulative = -9.2315e-08
PIMPLE: iteration 3
smoothSolver:  Solving for Ux, Initial residual = 0.0023585, Final residual = 4.2387e-11, No Iterations 2
smoothSolver:  Solving for Uy, Initial residual = 0.0079768, Final residual = 1.376e-10, No Iterations 2
smoothSolver:  Solving for Uz, Initial residual = 0.0042787, Final residual = 1.0449e-10, No Iterations 2
DICPCG:  Solving for p, Initial residual = 0.017686, Final residual = 0.00016305, No Iterations 9
DICPCG:  Solving for p, Initial residual = 0.0011601, Final residual = 9.5962e-10, No Iterations 53
time step continuity errors : sum local = 1.3929e-12, global = 1.5033e-14, cumulative = -9.2315e-08
ExecutionTime = 14.96 s  ClockTime = 313 s

surfaceRegion PRESSURE_mantle write:
    none(mantle) of p = 0

surfaceRegion TRACTION_mantle write:
    none(mantle) of wallShearStress = (0 0 0)

I get past the save

Reading pointDisplacement

prev_runTime0.0000
GAMG:  Solving for cellDisplacementx, Initial residual = 0.0075283, Final residual = 3.0015e-08, No Iterations 8
GAMG:  Solving for cellDisplacementy, Initial residual = 0.016212, Final residual = 1.1091e-07, No Iterations 8
GAMG:  Solving for cellDisplacementz, Initial residual = 0.015192, Final residual = 1.2292e-07, No Iterations 8
PIMPLE: iteration 1
smoothSolver:  Solving for Ux, Initial residual = 2.3519e-05, Final residual = 1.3999e-09, No Iterations 1
smoothSolver:  Solving for Uy, Initial residual = 7.4762e-05, Final residual = 4.4718e-09, No Iterations 1
smoothSolver:  Solving for Uz, Initial residual = 5.4936e-05, Final residual = 3.3627e-09, No Iterations 1
DICPCG:  Solving for p, Initial residual = 0.025436, Final residual = 0.00020132, No Iterations 18
DICPCG:  Solving for p, Initial residual = 0.0025274, Final residual = 1.6996e-05, No Iterations 26
time step continuity errors : sum local = 1.7781e-08, global = 6.9778e-10, cumulative = -9.1617e-08
PIMPLE: iteration 2
smoothSolver:  Solving for Ux, Initial residual = 0.0027247, Final residual = 1.1036e-07, No Iterations 1
smoothSolver:  Solving for Uy, Initial residual = 0.0097459, Final residual = 3.2979e-07, No Iterations 1
smoothSolver:  Solving for Uz, Initial residual = 0.0077287, Final residual = 2.4812e-07, No Iterations 1
DICPCG:  Solving for p, Initial residual = 0.0044874, Final residual = 3.1878e-05, No Iterations 15
DICPCG:  Solving for p, Initial residual = 0.00033957, Final residual = 2.9451e-06, No Iterations 31
time step continuity errors : sum local = 3.0685e-09, global = 2.1789e-10, cumulative = -9.1399e-08
PIMPLE: iteration 3
smoothSolver:  Solving for Ux, Initial residual = 0.0016626, Final residual = 9.9519e-08, No Iterations 1
smoothSolver:  Solving for Uy, Initial residual = 0.005993, Final residual = 1.213e-10, No Iterations 2
smoothSolver:  Solving for Uz, Initial residual = 0.0047408, Final residual = 9.1983e-11, No Iterations 2
DICPCG:  Solving for p, Initial residual = 0.017709, Final residual = 0.00017431, No Iterations 8
DICPCG:  Solving for p, Initial residual = 0.0011601, Final residual = 7.9415e-10, No Iterations 53
time step continuity errors : sum local = 1.153e-12, global = -7.4351e-15, cumulative = -9.1399e-08
ExecutionTime = 15.79 s  ClockTime = 330 s

surfaceRegion PRESSURE_mantle write:
    none(mantle) of p = 0

surfaceRegion TRACTION_mantle write:
    none(mantle) of wallShearStress = (0 0 0)

I get past the save

Courant Number mean: 0.00062778 max: 0.0064156
0.0001

Time = 0.0002

Reading pointDisplacement

prev_runTime0.0001
GAMG:  Solving for cellDisplacementx, Initial residual = 0.33022, Final residual = 2.666e-06, No Iterations 5
GAMG:  Solving for cellDisplacementy, Initial residual = 0.33185, Final residual = 6.6734e-07, No Iterations 6
GAMG:  Solving for cellDisplacementz, Initial residual = 0.31719, Final residual = 5.1295e-07, No Iterations 6
PIMPLE: iteration 1
smoothSolver:  Solving for Ux, Initial residual = 0.23174, Final residual = 6.3102e-06, No Iterations 1
smoothSolver:  Solving for Uy, Initial residual = 0.26084, Final residual = 1.588e-05, No Iterations 1
smoothSolver:  Solving for Uz, Initial residual = 0.22629, Final residual = 1.3962e-05, No Iterations 1
DICPCG:  Solving for p, Initial residual = 0.16271, Final residual = 0.0010472, No Iterations 40
DICPCG:  Solving for p, Initial residual = 0.023908, Final residual = 0.00014614, No Iterations 8
time step continuity errors : sum local = 1.1631e-07, global = 5.9154e-09, cumulative = -8.5484e-08
PIMPLE: iteration 2
smoothSolver:  Solving for Ux, Initial residual = 0.047016, Final residual = 9.8963e-07, No Iterations 1
smoothSolver:  Solving for Uy, Initial residual = 0.030504, Final residual = 1.9232e-06, No Iterations 1
smoothSolver:  Solving for Uz, Initial residual = 0.024465, Final residual = 1.5678e-06, No Iterations 1
DICPCG:  Solving for p, Initial residual = 0.073386, Final residual = 0.00047088, No Iterations 40
DICPCG:  Solving for p, Initial residual = 0.010112, Final residual = 6.1276e-05, No Iterations 8
time step continuity errors : sum local = 4.6921e-08, global = 2.4324e-09, cumulative = -8.3052e-08
PIMPLE: iteration 3
smoothSolver:  Solving for Ux, Initial residual = 0.041121, Final residual = 4.4793e-10, No Iterations 2
smoothSolver:  Solving for Uy, Initial residual = 0.018911, Final residual = 7.2784e-10, No Iterations 2
smoothSolver:  Solving for Uz, Initial residual = 0.016661, Final residual = 5.9622e-10, No Iterations 2
DICPCG:  Solving for p, Initial residual = 0.028823, Final residual = 0.00018946, No Iterations 38
DICPCG:  Solving for p, Initial residual = 0.0021808, Final residual = 8.9617e-10, No Iterations 53
time step continuity errors : sum local = 9.5983e-13, global = 5.0606e-15, cumulative = -8.3052e-08
ExecutionTime = 16.75 s  ClockTime = 346 s

surfaceRegion PRESSURE_mantle write:
    none(mantle) of p = 0

surfaceRegion TRACTION_mantle write:
    none(mantle) of wallShearStress = (0 0 0)

I get past the save

Reading pointDisplacement

prev_runTime0.0001
GAMG:  Solving for cellDisplacementx, Initial residual = 0.34788, Final residual = 2.2466e-06, No Iterations 8
GAMG:  Solving for cellDisplacementy, Initial residual = 0.19545, Final residual = 8.8954e-07, No Iterations 8
GAMG:  Solving for cellDisplacementz, Initial residual = 0.18693, Final residual = 8.0803e-07, No Iterations 8
PIMPLE: iteration 1
smoothSolver:  Solving for Ux, Initial residual = 0.0003821, Final residual = 3.0218e-08, No Iterations 1
smoothSolver:  Solving for Uy, Initial residual = 0.0011728, Final residual = 9.5034e-08, No Iterations 1
smoothSolver:  Solving for Uz, Initial residual = 0.00086986, Final residual = 7.079e-08, No Iterations 1
DICPCG:  Solving for p, Initial residual = 0.22902, Final residual = 0.0014081, No Iterations 40
DICPCG:  Solving for p, Initial residual = 0.022579, Final residual = 0.00022156, No Iterations 7
time step continuity errors : sum local = 2.9668e-07, global = -1.5152e-08, cumulative = -9.8203e-08
PIMPLE: iteration 2
smoothSolver:  Solving for Ux, Initial residual = 0.058848, Final residual = 1.8015e-06, No Iterations 1
smoothSolver:  Solving for Uy, Initial residual = 0.059601, Final residual = 4.0875e-06, No Iterations 1
smoothSolver:  Solving for Uz, Initial residual = 0.049969, Final residual = 3.5344e-06, No Iterations 1
DICPCG:  Solving for p, Initial residual = 0.032915, Final residual = 0.00022358, No Iterations 39
DICPCG:  Solving for p, Initial residual = 0.0033704, Final residual = 2.9973e-05, No Iterations 7
time step continuity errors : sum local = 3.3259e-08, global = -7.1923e-10, cumulative = -9.8923e-08
PIMPLE: iteration 3
smoothSolver:  Solving for Ux, Initial residual = 0.029547, Final residual = 5.3237e-10, No Iterations 2
smoothSolver:  Solving for Uy, Initial residual = 0.031663, Final residual = 1.3874e-09, No Iterations 2
smoothSolver:  Solving for Uz, Initial residual = 0.026169, Final residual = 1.1999e-09, No Iterations 2
DICPCG:  Solving for p, Initial residual = 0.034631, Final residual = 0.00032422, No Iterations 38
DICPCG:  Solving for p, Initial residual = 0.0030107, Final residual = 5.8745e-10, No Iterations 55
time step continuity errors : sum local = 8.7033e-13, global = 1.1427e-14, cumulative = -9.8923e-08
ExecutionTime = 17.57 s  ClockTime = 365 s

surfaceRegion PRESSURE_mantle write:
    none(mantle) of p = 0

surfaceRegion TRACTION_mantle write:
    none(mantle) of wallShearStress = (0 0 0)

I get past the save

Reading pointDisplacement

prev_runTime0.0001
GAMG:  Solving for cellDisplacementx, Initial residual = 0.019062, Final residual = 1.4353e-07, No Iterations 5
GAMG:  Solving for cellDisplacementy, Initial residual = 0.022426, Final residual = 1.1061e-07, No Iterations 5
GAMG:  Solving for cellDisplacementz, Initial residual = 0.023187, Final residual = 1.4649e-07, No Iterations 5
PIMPLE: iteration 1
smoothSolver:  Solving for Ux, Initial residual = 0.00011204, Final residual = 5.5828e-09, No Iterations 1
smoothSolver:  Solving for Uy, Initial residual = 0.00013143, Final residual = 1.1592e-08, No Iterations 1
smoothSolver:  Solving for Uz, Initial residual = 0.00010925, Final residual = 8.6707e-09, No Iterations 1
DICPCG:  Solving for p, Initial residual = 0.050089, Final residual = 0.00038071, No Iterations 27
DICPCG:  Solving for p, Initial residual = 0.0045306, Final residual = 4.0502e-05, No Iterations 17
time step continuity errors : sum local = 4.4269e-08, global = 1.7872e-09, cumulative = -9.7135e-08
PIMPLE: iteration 2
smoothSolver:  Solving for Ux, Initial residual = 0.0068611, Final residual = 1.1692e-07, No Iterations 1
smoothSolver:  Solving for Uy, Initial residual = 0.0075398, Final residual = 5.8699e-07, No Iterations 1
smoothSolver:  Solving for Uz, Initial residual = 0.0081452, Final residual = 3.8225e-07, No Iterations 1
DICPCG:  Solving for p, Initial residual = 0.0083504, Final residual = 6.454e-05, No Iterations 26
DICPCG:  Solving for p, Initial residual = 0.00062542, Final residual = 5.7109e-06, No Iterations 14
time step continuity errors : sum local = 6.1343e-09, global = 3.4933e-10, cumulative = -9.6786e-08
PIMPLE: iteration 3
smoothSolver:  Solving for Ux, Initial residual = 0.0039068, Final residual = 5.3462e-11, No Iterations 2
smoothSolver:  Solving for Uy, Initial residual = 0.0047366, Final residual = 2.3733e-10, No Iterations 2
smoothSolver:  Solving for Uz, Initial residual = 0.0049536, Final residual = 1.5429e-10, No Iterations 2
DICPCG:  Solving for p, Initial residual = 0.029524, Final residual = 0.00027041, No Iterations 25
DICPCG:  Solving for p, Initial residual = 0.0019566, Final residual = 9.9872e-10, No Iterations 53
time step continuity errors : sum local = 1.4697e-12, global = -2.9233e-15, cumulative = -9.6786e-08
ExecutionTime = 18.4 s  ClockTime = 383 s

surfaceRegion PRESSURE_mantle write:
    none(mantle) of p = 0

surfaceRegion TRACTION_mantle write:
    none(mantle) of wallShearStress = (0 0 0)

I get past the save

Reading pointDisplacement

prev_runTime0.0001
GAMG:  Solving for cellDisplacementx, Initial residual = 0.003998, Final residual = 3.1869e-08, No Iterations 5
GAMG:  Solving for cellDisplacementy, Initial residual = 0.01044, Final residual = 1.6124e-08, No Iterations 6
GAMG:  Solving for cellDisplacementz, Initial residual = 0.010423, Final residual = 1.6273e-08, No Iterations 6
PIMPLE: iteration 1
smoothSolver:  Solving for Ux, Initial residual = 3.0729e-05, Final residual = 2.174e-09, No Iterations 1
smoothSolver:  Solving for Uy, Initial residual = 8.3533e-05, Final residual = 8.0716e-09, No Iterations 1
smoothSolver:  Solving for Uz, Initial residual = 6.3653e-05, Final residual = 5.8337e-09, No Iterations 1
DICPCG:  Solving for p, Initial residual = 0.042595, Final residual = 0.00038585, No Iterations 34
DICPCG:  Solving for p, Initial residual = 0.003478, Final residual = 3.3541e-05, No Iterations 17
time step continuity errors : sum local = 3.6328e-08, global = -6.7889e-09, cumulative = -1.0358e-07
PIMPLE: iteration 2
smoothSolver:  Solving for Ux, Initial residual = 0.0026571, Final residual = 1.1415e-07, No Iterations 1
smoothSolver:  Solving for Uy, Initial residual = 0.0065338, Final residual = 3.4989e-07, No Iterations 1
smoothSolver:  Solving for Uz, Initial residual = 0.0060008, Final residual = 3.2584e-07, No Iterations 1
DICPCG:  Solving for p, Initial residual = 0.0074233, Final residual = 5.8776e-05, No Iterations 24
DICPCG:  Solving for p, Initial residual = 0.0004993, Final residual = 4.8178e-06, No Iterations 32
time step continuity errors : sum local = 5.1839e-09, global = 1.0204e-10, cumulative = -1.0347e-07
PIMPLE: iteration 3
smoothSolver:  Solving for Ux, Initial residual = 0.0015952, Final residual = 4.4822e-11, No Iterations 2
smoothSolver:  Solving for Uy, Initial residual = 0.0041303, Final residual = 1.466e-10, No Iterations 2
smoothSolver:  Solving for Uz, Initial residual = 0.0037383, Final residual = 1.3558e-10, No Iterations 2
DICPCG:  Solving for p, Initial residual = 0.029563, Final residual = 0.00028155, No Iterations 10
DICPCG:  Solving for p, Initial residual = 0.0019151, Final residual = 7.3525e-10, No Iterations 53
time step continuity errors : sum local = 1.0835e-12, global = -2.4471e-14, cumulative = -1.0347e-07
ExecutionTime = 19.36 s  ClockTime = 401 s

surfaceRegion PRESSURE_mantle write:
    none(mantle) of p = 0

surfaceRegion TRACTION_mantle write:
    none(mantle) of wallShearStress = (0 0 0)

I get past the save

Reading pointDisplacement

prev_runTime0.0001
GAMG:  Solving for cellDisplacementx, Initial residual = 0.0022301, Final residual = 1.9878e-08, No Iterations 7
GAMG:  Solving for cellDisplacementy, Initial residual = 0.0065189, Final residual = 3.1655e-08, No Iterations 7
GAMG:  Solving for cellDisplacementz, Initial residual = 0.0058344, Final residual = 2.9434e-08, No Iterations 8
PIMPLE: iteration 1
smoothSolver:  Solving for Ux, Initial residual = 2.8625e-05, Final residual = 2.632e-09, No Iterations 1
smoothSolver:  Solving for Uy, Initial residual = 8.3514e-05, Final residual = 7.3155e-09, No Iterations 1
smoothSolver:  Solving for Uz, Initial residual = 6.3392e-05, Final residual = 5.6542e-09, No Iterations 1
DICPCG:  Solving for p, Initial residual = 0.038321, Final residual = 0.00033092, No Iterations 27
DICPCG:  Solving for p, Initial residual = 0.0029433, Final residual = 2.6066e-05, No Iterations 18
time step continuity errors : sum local = 2.824e-08, global = 6.0872e-09, cumulative = -9.7386e-08
PIMPLE: iteration 2
smoothSolver:  Solving for Ux, Initial residual = 0.0020383, Final residual = 1.19e-07, No Iterations 1
smoothSolver:  Solving for Uy, Initial residual = 0.006836, Final residual = 3.5956e-07, No Iterations 1
smoothSolver:  Solving for Uz, Initial residual = 0.0041693, Final residual = 2.7083e-07, No Iterations 1
DICPCG:  Solving for p, Initial residual = 0.0069084, Final residual = 5.8562e-05, No Iterations 24
DICPCG:  Solving for p, Initial residual = 0.00044452, Final residual = 4.1694e-06, No Iterations 29
time step continuity errors : sum local = 4.4885e-09, global = -5.1497e-11, cumulative = -9.7437e-08
PIMPLE: iteration 3
smoothSolver:  Solving for Ux, Initial residual = 0.001266, Final residual = 4.569e-11, No Iterations 2
smoothSolver:  Solving for Uy, Initial residual = 0.0042814, Final residual = 1.5147e-10, No Iterations 2
smoothSolver:  Solving for Uz, Initial residual = 0.0027316, Final residual = 1.1599e-10, No Iterations 2
DICPCG:  Solving for p, Initial residual = 0.029543, Final residual = 0.00027515, No Iterations 9
DICPCG:  Solving for p, Initial residual = 0.0019008, Final residual = 9.4133e-10, No Iterations 54
time step continuity errors : sum local = 1.3881e-12, global = 7.9146e-15, cumulative = -9.7437e-08
ExecutionTime = 19.87 s  ClockTime = 416 s

surfaceRegion PRESSURE_mantle write:
    none(mantle) of p = 0

surfaceRegion TRACTION_mantle write:
    none(mantle) of wallShearStress = (0 0 0)

I get past the save

Reading pointDisplacement

prev_runTime0.0001
GAMG:  Solving for cellDisplacementx, Initial residual = 0.00097499, Final residual = 1.8688e-09, No Iterations 6
GAMG:  Solving for cellDisplacementy, Initial residual = 0.0044898, Final residual = 1.2628e-08, No Iterations 6
GAMG:  Solving for cellDisplacementz, Initial residual = 0.0049668, Final residual = 3.9075e-08, No Iterations 5
PIMPLE: iteration 1
smoothSolver:  Solving for Ux, Initial residual = 2.717e-05, Final residual = 2.5875e-09, No Iterations 1
smoothSolver:  Solving for Uy, Initial residual = 8.3627e-05, Final residual = 7.4892e-09, No Iterations 1
smoothSolver:  Solving for Uz, Initial residual = 6.2535e-05, Final residual = 5.5984e-09, No Iterations 1
DICPCG:  Solving for p, Initial residual = 0.03761, Final residual = 0.00034537, No Iterations 26
DICPCG:  Solving for p, Initial residual = 0.0029739, Final residual = 2.9571e-05, No Iterations 31
time step continuity errors : sum local = 3.205e-08, global = 1.4588e-09, cumulative = -9.5978e-08
PIMPLE: iteration 2
smoothSolver:  Solving for Ux, Initial residual = 0.0017606, Final residual = 1.1962e-07, No Iterations 1
smoothSolver:  Solving for Uy, Initial residual = 0.0051808, Final residual = 3.6819e-07, No Iterations 1
smoothSolver:  Solving for Uz, Initial residual = 0.0052232, Final residual = 2.9625e-07, No Iterations 1
DICPCG:  Solving for p, Initial residual = 0.0068304, Final residual = 4.7218e-05, No Iterations 8
DICPCG:  Solving for p, Initial residual = 0.00044386, Final residual = 3.5507e-06, No Iterations 32
time step continuity errors : sum local = 3.8248e-09, global = 1.4714e-10, cumulative = -9.5831e-08
PIMPLE: iteration 3
smoothSolver:  Solving for Ux, Initial residual = 0.0011098, Final residual = 4.5046e-11, No Iterations 2
smoothSolver:  Solving for Uy, Initial residual = 0.0034198, Final residual = 1.5742e-10, No Iterations 2
smoothSolver:  Solving for Uz, Initial residual = 0.0032961, Final residual = 1.2665e-10, No Iterations 2
DICPCG:  Solving for p, Initial residual = 0.029491, Final residual = 0.00028385, No Iterations 9
DICPCG:  Solving for p, Initial residual = 0.0019026, Final residual = 7.8649e-10, No Iterations 54
time step continuity errors : sum local = 1.1605e-12, global = 9.1813e-15, cumulative = -9.5831e-08
ExecutionTime = 20.75 s  ClockTime = 435 s

surfaceRegion PRESSURE_mantle write:
    none(mantle) of p = 0

surfaceRegion TRACTION_mantle write:
    none(mantle) of wallShearStress = (0 0 0)

I get past the save

Reading pointDisplacement

prev_runTime0.0001
GAMG:  Solving for cellDisplacementx, Initial residual = 0.00065288, Final residual = 1.3319e-09, No Iterations 6
GAMG:  Solving for cellDisplacementy, Initial residual = 0.0037817, Final residual = 1.0641e-08, No Iterations 6
GAMG:  Solving for cellDisplacementz, Initial residual = 0.0036894, Final residual = 1.1331e-08, No Iterations 6
PIMPLE: iteration 1
smoothSolver:  Solving for Ux, Initial residual = 2.7245e-05, Final residual = 2.5734e-09, No Iterations 1
smoothSolver:  Solving for Uy, Initial residual = 8.1807e-05, Final residual = 7.5344e-09, No Iterations 1
smoothSolver:  Solving for Uz, Initial residual = 6.2353e-05, Final residual = 5.6015e-09, No Iterations 1
DICPCG:  Solving for p, Initial residual = 0.037449, Final residual = 0.00034244, No Iterations 9
DICPCG:  Solving for p, Initial residual = 0.0025627, Final residual = 2.4531e-05, No Iterations 27
time step continuity errors : sum local = 2.659e-08, global = -1.7703e-09, cumulative = -9.7602e-08
PIMPLE: iteration 2
smoothSolver:  Solving for Ux, Initial residual = 0.0015989, Final residual = 1.1214e-07, No Iterations 1
smoothSolver:  Solving for Uy, Initial residual = 0.0056062, Final residual = 3.9976e-07, No Iterations 1
smoothSolver:  Solving for Uz, Initial residual = 0.0041271, Final residual = 2.9244e-07, No Iterations 1
DICPCG:  Solving for p, Initial residual = 0.0067693, Final residual = 6.5564e-05, No Iterations 7
DICPCG:  Solving for p, Initial residual = 0.00041065, Final residual = 2.7511e-06, No Iterations 32
time step continuity errors : sum local = 2.9639e-09, global = -1.0408e-10, cumulative = -9.7706e-08
PIMPLE: iteration 3
smoothSolver:  Solving for Ux, Initial residual = 0.0010263, Final residual = 4.2523e-11, No Iterations 2
smoothSolver:  Solving for Uy, Initial residual = 0.0036347, Final residual = 1.6867e-10, No Iterations 2
smoothSolver:  Solving for Uz, Initial residual = 0.0027034, Final residual = 1.2633e-10, No Iterations 2
DICPCG:  Solving for p, Initial residual = 0.029486, Final residual = 0.00027063, No Iterations 9
DICPCG:  Solving for p, Initial residual = 0.001882, Final residual = 6.3912e-10, No Iterations 54
time step continuity errors : sum local = 9.4327e-13, global = 1.4612e-14, cumulative = -9.7706e-08
ExecutionTime = 21.77 s  ClockTime = 455 s

surfaceRegion PRESSURE_mantle write:
    none(mantle) of p = 0

surfaceRegion TRACTION_mantle write:
    none(mantle) of wallShearStress = (0 0 0)

I get past the save

Reading pointDisplacement

prev_runTime0.0001
GAMG:  Solving for cellDisplacementx, Initial residual = 0.0010237, Final residual = 1.603e-09, No Iterations 6
GAMG:  Solving for cellDisplacementy, Initial residual = 0.0035119, Final residual = 5.8951e-09, No Iterations 6
GAMG:  Solving for cellDisplacementz, Initial residual = 0.0031366, Final residual = 9.1802e-09, No Iterations 6
PIMPLE: iteration 1
smoothSolver:  Solving for Ux, Initial residual = 2.7116e-05, Final residual = 2.72e-09, No Iterations 1
smoothSolver:  Solving for Uy, Initial residual = 8.1612e-05, Final residual = 7.5218e-09, No Iterations 1
smoothSolver:  Solving for Uz, Initial residual = 6.1796e-05, Final residual = 5.618e-09, No Iterations 1
DICPCG:  Solving for p, Initial residual = 0.037399, Final residual = 0.00035247, No Iterations 12
DICPCG:  Solving for p, Initial residual = 0.0027435, Final residual = 2.1304e-05, No Iterations 32
time step continuity errors : sum local = 2.3128e-08, global = 9.2083e-10, cumulative = -9.6785e-08
PIMPLE: iteration 2
smoothSolver:  Solving for Ux, Initial residual = 0.0015656, Final residual = 1.1369e-07, No Iterations 1
smoothSolver:  Solving for Uy, Initial residual = 0.0063421, Final residual = 3.7761e-07, No Iterations 1
smoothSolver:  Solving for Uz, Initial residual = 0.0039686, Final residual = 2.8242e-07, No Iterations 1
DICPCG:  Solving for p, Initial residual = 0.0068135, Final residual = 4.0643e-05, No Iterations 8
DICPCG:  Solving for p, Initial residual = 0.00042001, Final residual = 3.1794e-06, No Iterations 31
time step continuity errors : sum local = 3.4306e-09, global = -7.8529e-11, cumulative = -9.6863e-08
PIMPLE: iteration 3
smoothSolver:  Solving for Ux, Initial residual = 0.0010046, Final residual = 4.2382e-11, No Iterations 2
smoothSolver:  Solving for Uy, Initial residual = 0.0040381, Final residual = 1.5862e-10, No Iterations 2
smoothSolver:  Solving for Uz, Initial residual = 0.0026128, Final residual = 1.2217e-10, No Iterations 2
DICPCG:  Solving for p, Initial residual = 0.029528, Final residual = 0.00028634, No Iterations 9
DICPCG:  Solving for p, Initial residual = 0.001898, Final residual = 6.0134e-10, No Iterations 54
time step continuity errors : sum local = 8.888e-13, global = 8.4683e-15, cumulative = -9.6863e-08
ExecutionTime = 22.65 s  ClockTime = 473 s

surfaceRegion PRESSURE_mantle write:
    none(mantle) of p = 0

surfaceRegion TRACTION_mantle write:
    none(mantle) of wallShearStress = (0 0 0)

I get past the save

Reading pointDisplacement

prev_runTime0.0001
GAMG:  Solving for cellDisplacementx, Initial residual = 0.00083949, Final residual = 1.5457e-09, No Iterations 6
GAMG:  Solving for cellDisplacementy, Initial residual = 0.0024673, Final residual = 7.1108e-09, No Iterations 6
GAMG:  Solving for cellDisplacementz, Initial residual = 0.002549, Final residual = 3.9704e-09, No Iterations 6
PIMPLE: iteration 1
smoothSolver:  Solving for Ux, Initial residual = 2.7102e-05, Final residual = 2.6482e-09, No Iterations 1
smoothSolver:  Solving for Uy, Initial residual = 8.1999e-05, Final residual = 7.5799e-09, No Iterations 1
smoothSolver:  Solving for Uz, Initial residual = 6.2015e-05, Final residual = 5.6777e-09, No Iterations 1
DICPCG:  Solving for p, Initial residual = 0.036827, Final residual = 0.00034072, No Iterations 27
DICPCG:  Solving for p, Initial residual = 0.0025307, Final residual = 2.385e-05, No Iterations 31
time step continuity errors : sum local = 2.5902e-08, global = 2.1131e-10, cumulative = -9.6652e-08
PIMPLE: iteration 2
smoothSolver:  Solving for Ux, Initial residual = 0.0016948, Final residual = 1.08e-07, No Iterations 1
smoothSolver:  Solving for Uy, Initial residual = 0.0050353, Final residual = 3.7226e-07, No Iterations 1
smoothSolver:  Solving for Uz, Initial residual = 0.0042225, Final residual = 2.7586e-07, No Iterations 1
DICPCG:  Solving for p, Initial residual = 0.0067127, Final residual = 4.6201e-05, No Iterations 8
DICPCG:  Solving for p, Initial residual = 0.00040317, Final residual = 3.6243e-06, No Iterations 32
time step continuity errors : sum local = 3.912e-09, global = -1.2943e-10, cumulative = -9.6781e-08
PIMPLE: iteration 3
smoothSolver:  Solving for Ux, Initial residual = 0.0010744, Final residual = 4.0769e-11, No Iterations 2
smoothSolver:  Solving for Uy, Initial residual = 0.0033264, Final residual = 1.5866e-10, No Iterations 2
smoothSolver:  Solving for Uz, Initial residual = 0.0027468, Final residual = 1.1964e-10, No Iterations 2
DICPCG:  Solving for p, Initial residual = 0.029518, Final residual = 0.00027735, No Iterations 9
DICPCG:  Solving for p, Initial residual = 0.0018891, Final residual = 7.6632e-10, No Iterations 54
time step continuity errors : sum local = 1.1331e-12, global = 5.284e-15, cumulative = -9.6781e-08
ExecutionTime = 23.23 s  ClockTime = 488 s

surfaceRegion PRESSURE_mantle write:
    none(mantle) of p = 0

surfaceRegion TRACTION_mantle write:
    none(mantle) of wallShearStress = (0 0 0)

I get past the save

Reading pointDisplacement

prev_runTime0.0001
GAMG:  Solving for cellDisplacementx, Initial residual = 0.00048865, Final residual = 3.8894e-09, No Iterations 5
GAMG:  Solving for cellDisplacementy, Initial residual = 0.0018139, Final residual = 6.3156e-09, No Iterations 6
GAMG:  Solving for cellDisplacementz, Initial residual = 0.0019527, Final residual = 4.1832e-09, No Iterations 6
PIMPLE: iteration 1
smoothSolver:  Solving for Ux, Initial residual = 2.7025e-05, Final residual = 2.6897e-09, No Iterations 1
smoothSolver:  Solving for Uy, Initial residual = 8.1415e-05, Final residual = 7.4906e-09, No Iterations 1
smoothSolver:  Solving for Uz, Initial residual = 6.1756e-05, Final residual = 5.5767e-09, No Iterations 1
DICPCG:  Solving for p, Initial residual = 0.036541, Final residual = 0.00031418, No Iterations 12
DICPCG:  Solving for p, Initial residual = 0.0024367, Final residual = 2.1692e-05, No Iterations 31
time step continuity errors : sum local = 2.356e-08, global = 1.5397e-09, cumulative = -9.5242e-08
PIMPLE: iteration 2
smoothSolver:  Solving for Ux, Initial residual = 0.0015768, Final residual = 1.1039e-07, No Iterations 1
smoothSolver:  Solving for Uy, Initial residual = 0.0048961, Final residual = 3.8367e-07, No Iterations 1
smoothSolver:  Solving for Uz, Initial residual = 0.0040498, Final residual = 2.8445e-07, No Iterations 1
DICPCG:  Solving for p, Initial residual = 0.0066846, Final residual = 4.9404e-05, No Iterations 7
DICPCG:  Solving for p, Initial residual = 0.00039385, Final residual = 3.6894e-06, No Iterations 30
time step continuity errors : sum local = 3.9827e-09, global = 2.3445e-10, cumulative = -9.5007e-08
PIMPLE: iteration 3
smoothSolver:  Solving for Ux, Initial residual = 0.0010132, Final residual = 4.134e-11, No Iterations 2
smoothSolver:  Solving for Uy, Initial residual = 0.0032522, Final residual = 1.6297e-10, No Iterations 2
smoothSolver:  Solving for Uz, Initial residual = 0.0026621, Final residual = 1.2282e-10, No Iterations 2
DICPCG:  Solving for p, Initial residual = 0.029527, Final residual = 0.00027458, No Iterations 9
DICPCG:  Solving for p, Initial residual = 0.0018865, Final residual = 7.1503e-10, No Iterations 54
time step continuity errors : sum local = 1.0572e-12, global = 4.6987e-15, cumulative = -9.5007e-08
ExecutionTime = 23.97 s  ClockTime = 504 s

surfaceRegion PRESSURE_mantle write:
    none(mantle) of p = 0

surfaceRegion TRACTION_mantle write:
    none(mantle) of wallShearStress = (0 0 0)

I get past the save

Reading pointDisplacement

prev_runTime0.0001
GAMG:  Solving for cellDisplacementx, Initial residual = 0.00047694, Final residual = 3.9738e-09, No Iterations 5
GAMG:  Solving for cellDisplacementy, Initial residual = 0.0011863, Final residual = 8.971e-09, No Iterations 5
GAMG:  Solving for cellDisplacementz, Initial residual = 0.0011339, Final residual = 2.3399e-09, No Iterations 6
PIMPLE: iteration 1
smoothSolver:  Solving for Ux, Initial residual = 2.7225e-05, Final residual = 2.7591e-09, No Iterations 1
smoothSolver:  Solving for Uy, Initial residual = 8.1202e-05, Final residual = 7.4717e-09, No Iterations 1
smoothSolver:  Solving for Uz, Initial residual = 6.1558e-05, Final residual = 5.5535e-09, No Iterations 1
DICPCG:  Solving for p, Initial residual = 0.035766, Final residual = 0.00033461, No Iterations 12
DICPCG:  Solving for p, Initial residual = 0.0022988, Final residual = 2.078e-05, No Iterations 18
time step continuity errors : sum local = 2.2559e-08, global = -1.7272e-09, cumulative = -9.6735e-08
PIMPLE: iteration 2
smoothSolver:  Solving for Ux, Initial residual = 0.0014825, Final residual = 1.0535e-07, No Iterations 1
smoothSolver:  Solving for Uy, Initial residual = 0.0049497, Final residual = 3.7564e-07, No Iterations 1
smoothSolver:  Solving for Uz, Initial residual = 0.0035252, Final residual = 2.8524e-07, No Iterations 1
DICPCG:  Solving for p, Initial residual = 0.0065824, Final residual = 4.9858e-05, No Iterations 7
DICPCG:  Solving for p, Initial residual = 0.00038246, Final residual = 2.869e-06, No Iterations 19
time step continuity errors : sum local = 3.096e-09, global = 1.4671e-10, cumulative = -9.6588e-08
PIMPLE: iteration 3
smoothSolver:  Solving for Ux, Initial residual = 0.00096334, Final residual = 9.8719e-08, No Iterations 1
smoothSolver:  Solving for Uy, Initial residual = 0.0032841, Final residual = 1.5979e-10, No Iterations 2
smoothSolver:  Solving for Uz, Initial residual = 0.0023738, Final residual = 1.2397e-10, No Iterations 2
DICPCG:  Solving for p, Initial residual = 0.0295, Final residual = 0.00028384, No Iterations 9
DICPCG:  Solving for p, Initial residual = 0.0018881, Final residual = 7.4238e-10, No Iterations 54
time step continuity errors : sum local = 1.0973e-12, global = -1.2765e-15, cumulative = -9.6588e-08
ExecutionTime = 24.72 s  ClockTime = 520 s

surfaceRegion PRESSURE_mantle write:
    none(mantle) of p = 0

surfaceRegion TRACTION_mantle write:
    none(mantle) of wallShearStress = (0 0 0)

I get past the save

Reading pointDisplacement

prev_runTime0.0001
GAMG:  Solving for cellDisplacementx, Initial residual = 0.00035658, Final residual = 2.9566e-09, No Iterations 7
GAMG:  Solving for cellDisplacementy, Initial residual = 0.00055135, Final residual = 4.1542e-09, No Iterations 7
GAMG:  Solving for cellDisplacementz, Initial residual = 0.00052895, Final residual = 3.3342e-09, No Iterations 7
[...]
GAMG:  Solving for cellDisplacementy, Initial residual = 0.0031068, Final residual = 6.2534e-09, No Iterations 7
GAMG:  Solving for cellDisplacementz, Initial residual = 0.0026258, Final residual = 2.5964e-08, No Iterations 6
PIMPLE: iteration 1
smoothSolver:  Solving for Ux, Initial residual = 0.0018134, Final residual = 1.5851e-05, No Iterations 1
smoothSolver:  Solving for Uy, Initial residual = 0.0020194, Final residual = 7.852e-06, No Iterations 1
smoothSolver:  Solving for Uz, Initial residual = 0.0019433, Final residual = 7.233e-06, No Iterations 1
DICPCG:  Solving for p, Initial residual = 0.1156, Final residual = 0.00094363, No Iterations 13
DICPCG:  Solving for p, Initial residual = 0.01018, Final residual = 6.4873e-05, No Iterations 21
time step continuity errors : sum local = 1.9624e-06, global = 6.9647e-08, cumulative = -7.2014e-06
PIMPLE: iteration 2
smoothSolver:  Solving for Ux, Initial residual = 0.002612, Final residual = 1.9933e-05, No Iterations 1
smoothSolver:  Solving for Uy, Initial residual = 0.0033595, Final residual = 1.39e-05, No Iterations 1
smoothSolver:  Solving for Uz, Initial residual = 0.0026357, Final residual = 1.209e-05, No Iterations 1
DICPCG:  Solving for p, Initial residual = 0.020022, Final residual = 0.00017858, No Iterations 9
DICPCG:  Solving for p, Initial residual = 0.0018178, Final residual = 1.6855e-05, No Iterations 19
time step continuity errors : sum local = 4.9753e-07, global = 1.4113e-07, cumulative = -7.0603e-06
PIMPLE: iteration 3
smoothSolver:  Solving for Ux, Initial residual = 0.0017508, Final residual = 9.2155e-08, No Iterations 2
smoothSolver:  Solving for Uy, Initial residual = 0.0024545, Final residual = 1.2759e-09, No Iterations 3
smoothSolver:  Solving for Uz, Initial residual = 0.0019029, Final residual = 8.7975e-08, No Iterations 2
DICPCG:  Solving for p, Initial residual = 0.094451, Final residual = 0.00088747, No Iterations 7
DICPCG:  Solving for p, Initial residual = 0.0094718, Final residual = 9.5026e-10, No Iterations 60
time step continuity errors : sum local = 3.4811e-11, global = -1.514e-13, cumulative = -7.0603e-06
ExecutionTime = 262.14 s  ClockTime = 5123 s

surfaceRegion PRESSURE_mantle write:
    none(mantle) of p = 0

surfaceRegion TRACTION_mantle write:
    none(mantle) of wallShearStress = (0 0 0)

I get past the save

Reading pointDisplacement

prev_runTime0.0038
GAMG:  Solving for cellDisplacementx, Initial residual = 0.0012806, Final residual = 3.7015e-09, No Iterations 6
GAMG:  Solving for cellDisplacementy, Initial residual = 0.0020066, Final residual = 1.1338e-08, No Iterations 6
GAMG:  Solving for cellDisplacementz, Initial residual = 0.0017616, Final residual = 9.7067e-09, No Iterations 6
PIMPLE: iteration 1
smoothSolver:  Solving for Ux, Initial residual = 0.0015124, Final residual = 1.4151e-05, No Iterations 1
smoothSolver:  Solving for Uy, Initial residual = 0.0017614, Final residual = 7.0461e-06, No Iterations 1
smoothSolver:  Solving for Uz, Initial residual = 0.0017192, Final residual = 6.0061e-06, No Iterations 1
DICPCG:  Solving for p, Initial residual = 0.11672, Final residual = 0.0011567, No Iterations 15
DICPCG:  Solving for p, Initial residual = 0.010288, Final residual = 7.7093e-05, No Iterations 38
time step continuity errors : sum local = 2.3424e-06, global = 6.2497e-08, cumulative = -6.9978e-06
PIMPLE: iteration 2
smoothSolver:  Solving for Ux, Initial residual = 0.002408, Final residual = 1.914e-05, No Iterations 1
smoothSolver:  Solving for Uy, Initial residual = 0.0032805, Final residual = 1.2565e-05, No Iterations 1
smoothSolver:  Solving for Uz, Initial residual = 0.0024649, Final residual = 1.0805e-05, No Iterations 1
DICPCG:  Solving for p, Initial residual = 0.02048, Final residual = 0.00014194, No Iterations 7
DICPCG:  Solving for p, Initial residual = 0.0018686, Final residual = 1.7188e-05, No Iterations 35
time step continuity errors : sum local = 5.15e-07, global = -4.8644e-08, cumulative = -7.0465e-06
PIMPLE: iteration 3
smoothSolver:  Solving for Ux, Initial residual = 0.001685, Final residual = 9.3212e-08, No Iterations 2
smoothSolver:  Solving for Uy, Initial residual = 0.0024584, Final residual = 9.3468e-08, No Iterations 2
smoothSolver:  Solving for Uz, Initial residual = 0.0018377, Final residual = 8.2447e-08, No Iterations 2
DICPCG:  Solving for p, Initial residual = 0.092806, Final residual = 0.00088016, No Iterations 7
DICPCG:  Solving for p, Initial residual = 0.0092338, Final residual = 6.8622e-10, No Iterations 61
time step continuity errors : sum local = 2.5596e-11, global = -7.2668e-13, cumulative = -7.0465e-06
ExecutionTime = 263.08 s  ClockTime = 5142 s

surfaceRegion PRESSURE_mantle write:
    none(mantle) of p = 0

surfaceRegion TRACTION_mantle write:
    none(mantle) of wallShearStress = (0 0 0)

I get past the save

Reading pointDisplacement

prev_runTime0.0038
GAMG:  Solving for cellDisplacementx, Initial residual = 0.00072382, Final residual = 4.3601e-09, No Iterations 9
GAMG:  Solving for cellDisplacementy, Initial residual = 0.0015468, Final residual = 8.481e-09, No Iterations 10
GAMG:  Solving for cellDisplacementz, Initial residual = 0.0013175, Final residual = 1.2269e-08, No Iterations 9
PIMPLE: iteration 1
smoothSolver:  Solving for Ux, Initial residual = 0.0013466, Final residual = 1.3626e-05, No Iterations 1
smoothSolver:  Solving for Uy, Initial residual = 0.0017012, Final residual = 6.9706e-06, No Iterations 1
smoothSolver:  Solving for Uz, Initial residual = 0.0015052, Final residual = 5.9568e-06, No Iterations 1
DICPCG:  Solving for p, Initial residual = 0.11305, Final residual = 0.00096952, No Iterations 9
DICPCG:  Solving for p, Initial residual = 0.0097399, Final residual = 7.0672e-05, No Iterations 35
time step continuity errors : sum local = 2.1509e-06, global = -5.0289e-08, cumulative = -7.0968e-06
PIMPLE: iteration 2
smoothSolver:  Solving for Ux, Initial residual = 0.0021545, Final residual = 1.8146e-05, No Iterations 1
smoothSolver:  Solving for Uy, Initial residual = 0.0032223, Final residual = 1.2736e-05, No Iterations 1
smoothSolver:  Solving for Uz, Initial residual = 0.0024535, Final residual = 1.0504e-05, No Iterations 1
DICPCG:  Solving for p, Initial residual = 0.019401, Final residual = 0.00015104, No Iterations 9
DICPCG:  Solving for p, Initial residual = 0.0016491, Final residual = 1.4158e-05, No Iterations 29
time step continuity errors : sum local = 4.2092e-07, global = -9.6147e-10, cumulative = -7.0977e-06
PIMPLE: iteration 3
smoothSolver:  Solving for Ux, Initial residual = 0.0015622, Final residual = 8.9164e-08, No Iterations 2
smoothSolver:  Solving for Uy, Initial residual = 0.0023948, Final residual = 9.6619e-08, No Iterations 2
smoothSolver:  Solving for Uz, Initial residual = 0.0018248, Final residual = 7.5787e-08, No Iterations 2
DICPCG:  Solving for p, Initial residual = 0.09365, Final residual = 0.00084637, No Iterations 7
DICPCG:  Solving for p, Initial residual = 0.0093408, Final residual = 6.188e-10, No Iterations 61
time step continuity errors : sum local = 2.288e-11, global = -5.6281e-13, cumulative = -7.0977e-06
ExecutionTime = 264.04 s  ClockTime = 5161 s

surfaceRegion PRESSURE_mantle write:
    none(mantle) of p = 0

surfaceRegion TRACTION_mantle write:
    none(mantle) of wallShearStress = (0 0 0)

I get past the save

Reading pointDisplacement

prev_runTime0.0038
GAMG:  Solving for cellDisplacementx, Initial residual = 0.00051754, Final residual = 2.1794e-09, No Iterations 6
GAMG:  Solving for cellDisplacementy, Initial residual = 0.0010639, Final residual = 5.7501e-09, No Iterations 6
GAMG:  Solving for cellDisplacementz, Initial residual = 0.00092042, Final residual = 4.2907e-09, No Iterations 6
PIMPLE: iteration 1
smoothSolver:  Solving for Ux, Initial residual = 0.0012347, Final residual = 1.3294e-05, No Iterations 1
smoothSolver:  Solving for Uy, Initial residual = 0.0015903, Final residual = 6.7634e-06, No Iterations 1
smoothSolver:  Solving for Uz, Initial residual = 0.0014228, Final residual = 5.4667e-06, No Iterations 1
DICPCG:  Solving for p, Initial residual = 0.11394, Final residual = 0.001027, No Iterations 7
DICPCG:  Solving for p, Initial residual = 0.009867, Final residual = 7.9929e-05, No Iterations 34
time step continuity errors : sum local = 2.4264e-06, global = -1.2732e-07, cumulative = -7.225e-06
PIMPLE: iteration 2
smoothSolver:  Solving for Ux, Initial residual = 0.0020591, Final residual = 1.7067e-05, No Iterations 1
smoothSolver:  Solving for Uy, Initial residual = 0.0031812, Final residual = 1.2667e-05, No Iterations 1
smoothSolver:  Solving for Uz, Initial residual = 0.0023587, Final residual = 1.0331e-05, No Iterations 1
DICPCG:  Solving for p, Initial residual = 0.019864, Final residual = 0.00017128, No Iterations 6
DICPCG:  Solving for p, Initial residual = 0.0017424, Final residual = 1.6522e-05, No Iterations 33
time step continuity errors : sum local = 4.9209e-07, global = -3.251e-08, cumulative = -7.2575e-06
PIMPLE: iteration 3
smoothSolver:  Solving for Ux, Initial residual = 0.0015181, Final residual = 8.4029e-08, No Iterations 2
smoothSolver:  Solving for Uy, Initial residual = 0.0023931, Final residual = 9.4719e-08, No Iterations 2
smoothSolver:  Solving for Uz, Initial residual = 0.0017848, Final residual = 7.6548e-08, No Iterations 2
DICPCG:  Solving for p, Initial residual = 0.093397, Final residual = 0.0008195, No Iterations 7
DICPCG:  Solving for p, Initial residual = 0.0092678, Final residual = 6.5332e-10, No Iterations 61
time step continuity errors : sum local = 2.4202e-11, global = -6.5514e-13, cumulative = -7.2575e-06
ExecutionTime = 265.06 s  ClockTime = 5181 s

surfaceRegion PRESSURE_mantle write:
    none(mantle) of p = 0

surfaceRegion TRACTION_mantle write:
    none(mantle) of wallShearStress = (0 0 0)

I get past the save

Reading pointDisplacement

prev_runTime0.0038
GAMG:  Solving for cellDisplacementx, Initial residual = 0.00034242, Final residual = 3.2095e-09, No Iterations 6
GAMG:  Solving for cellDisplacementy, Initial residual = 0.00081033, Final residual = 1.8327e-09, No Iterations 7
GAMG:  Solving for cellDisplacementz, Initial residual = 0.00069284, Final residual = 1.2975e-09, No Iterations 7
PIMPLE: iteration 1
smoothSolver:  Solving for Ux, Initial residual = 0.001186, Final residual = 1.3173e-05, No Iterations 1
smoothSolver:  Solving for Uy, Initial residual = 0.0015645, Final residual = 6.7437e-06, No Iterations 1
smoothSolver:  Solving for Uz, Initial residual = 0.0013013, Final residual = 5.4312e-06, No Iterations 1
DICPCG:  Solving for p, Initial residual = 0.11333, Final residual = 0.0010788, No Iterations 7
DICPCG:  Solving for p, Initial residual = 0.0097897, Final residual = 8.7273e-05, No Iterations 20
time step continuity errors : sum local = 2.65e-06, global = -4.0662e-07, cumulative = -7.6642e-06
PIMPLE: iteration 2
smoothSolver:  Solving for Ux, Initial residual = 0.002069, Final residual = 1.733e-05, No Iterations 1
smoothSolver:  Solving for Uy, Initial residual = 0.0031718, Final residual = 1.3039e-05, No Iterations 1
smoothSolver:  Solving for Uz, Initial residual = 0.0023977, Final residual = 1.0482e-05, No Iterations 1
DICPCG:  Solving for p, Initial residual = 0.019221, Final residual = 0.00018082, No Iterations 7
DICPCG:  Solving for p, Initial residual = 0.0016251, Final residual = 1.2738e-05, No Iterations 33
time step continuity errors : sum local = 3.7861e-07, global = 2.8501e-08, cumulative = -7.6357e-06
PIMPLE: iteration 3
smoothSolver:  Solving for Ux, Initial residual = 0.0015243, Final residual = 8.4486e-08, No Iterations 2
smoothSolver:  Solving for Uy, Initial residual = 0.0023682, Final residual = 9.687e-08, No Iterations 2
smoothSolver:  Solving for Uz, Initial residual = 0.0018018, Final residual = 7.6582e-08, No Iterations 2
DICPCG:  Solving for p, Initial residual = 0.09365, Final residual = 0.00080033, No Iterations 7
DICPCG:  Solving for p, Initial residual = 0.0093081, Final residual = 6.4286e-10, No Iterations 61
time step continuity errors : sum local = 2.377e-11, global = -6.4274e-13, cumulative = -7.6357e-06
ExecutionTime = 266.02 s  ClockTime = 5200 s

surfaceRegion PRESSURE_mantle write:
    none(mantle) of p = 0

surfaceRegion TRACTION_mantle write:
    none(mantle) of wallShearStress = (0 0 0)

I get past the save

Reading pointDisplacement

prev_runTime0.0038
GAMG:  Solving for cellDisplacementx, Initial residual = 0.00022429, Final residual = 1.0749e-09, No Iterations 6
GAMG:  Solving for cellDisplacementy, Initial residual = 0.00059416, Final residual = 3.1902e-09, No Iterations 6
GAMG:  Solving for cellDisplacementz, Initial residual = 0.00050608, Final residual = 2.2655e-09, No Iterations 6
PIMPLE: iteration 1
smoothSolver:  Solving for Ux, Initial residual = 0.0011267, Final residual = 1.2856e-05, No Iterations 1
smoothSolver:  Solving for Uy, Initial residual = 0.0015092, Final residual = 6.6656e-06, No Iterations 1
smoothSolver:  Solving for Uz, Initial residual = 0.0012831, Final residual = 5.2728e-06, No Iterations 1
DICPCG:  Solving for p, Initial residual = 0.11387, Final residual = 0.0010406, No Iterations 7
DICPCG:  Solving for p, Initial residual = 0.0098363, Final residual = 9.0768e-05, No Iterations 22
time step continuity errors : sum local = 2.7554e-06, global = -7.2463e-07, cumulative = -8.3603e-06
PIMPLE: iteration 2
smoothSolver:  Solving for Ux, Initial residual = 0.0020693, Final residual = 1.7212e-05, No Iterations 1
smoothSolver:  Solving for Uy, Initial residual = 0.0031648, Final residual = 1.2782e-05, No Iterations 1
smoothSolver:  Solving for Uz, Initial residual = 0.0023427, Final residual = 1.0245e-05, No Iterations 1
DICPCG:  Solving for p, Initial residual = 0.019661, Final residual = 0.00018024, No Iterations 6
DICPCG:  Solving for p, Initial residual = 0.0016982, Final residual = 1.5202e-05, No Iterations 32
time step continuity errors : sum local = 4.521e-07, global = -1.9389e-08, cumulative = -8.3797e-06
PIMPLE: iteration 3
smoothSolver:  Solving for Ux, Initial residual = 0.0015282, Final residual = 8.4688e-08, No Iterations 2
smoothSolver:  Solving for Uy, Initial residual = 0.0023805, Final residual = 9.5362e-08, No Iterations 2
smoothSolver:  Solving for Uz, Initial residual = 0.0017817, Final residual = 7.607e-08, No Iterations 2
DICPCG:  Solving for p, Initial residual = 0.093565, Final residual = 0.00081316, No Iterations 7
DICPCG:  Solving for p, Initial residual = 0.009286, Final residual = 6.5125e-10, No Iterations 61
time step continuity errors : sum local = 2.4093e-11, global = -6.4126e-13, cumulative = -8.3797e-06
ExecutionTime = 267.04 s  ClockTime = 5219 s

surfaceRegion PRESSURE_mantle write:
    none(mantle) of p = 0

surfaceRegion TRACTION_mantle write:
    none(mantle) of wallShearStress = (0 0 0)

I get past the save

Reading pointDisplacement

prev_runTime0.0038
GAMG:  Solving for cellDisplacementx, Initial residual = 0.00016295, Final residual = 8.1286e-10, No Iterations 6
GAMG:  Solving for cellDisplacementy, Initial residual = 0.00044939, Final residual = 2.4212e-09, No Iterations 6
GAMG:  Solving for cellDisplacementz, Initial residual = 0.00038147, Final residual = 1.677e-09, No Iterations 6
PIMPLE: iteration 1
smoothSolver:  Solving for Ux, Initial residual = 0.0011101, Final residual = 1.2886e-05, No Iterations 1
smoothSolver:  Solving for Uy, Initial residual = 0.0015025, Final residual = 6.5988e-06, No Iterations 1
smoothSolver:  Solving for Uz, Initial residual = 0.0012091, Final residual = 5.133e-06, No Iterations 1
DICPCG:  Solving for p, Initial residual = 0.1135, Final residual = 0.0010805, No Iterations 7
DICPCG:  Solving for p, Initial residual = 0.0097966, Final residual = 9.1959e-05, No Iterations 34
time step continuity errors : sum local = 2.7903e-06, global = -1.4024e-07, cumulative = -8.5199e-06
PIMPLE: iteration 2
smoothSolver:  Solving for Ux, Initial residual = 0.0020644, Final residual = 1.7146e-05, No Iterations 1
smoothSolver:  Solving for Uy, Initial residual = 0.0031621, Final residual = 1.2894e-05, No Iterations 1
smoothSolver:  Solving for Uz, Initial residual = 0.0023666, Final residual = 1.0373e-05, No Iterations 1
DICPCG:  Solving for p, Initial residual = 0.019211, Final residual = 0.0001424, No Iterations 7
DICPCG:  Solving for p, Initial residual = 0.0016116, Final residual = 1.3326e-05, No Iterations 34
time step continuity errors : sum local = 3.9684e-07, global = -3.7048e-08, cumulative = -8.557e-06
PIMPLE: iteration 3
smoothSolver:  Solving for Ux, Initial residual = 0.0015241, Final residual = 8.4232e-08, No Iterations 2
smoothSolver:  Solving for Uy, Initial residual = 0.0023656, Final residual = 9.5906e-08, No Iterations 2
smoothSolver:  Solving for Uz, Initial residual = 0.0017885, Final residual = 7.5729e-08, No Iterations 2
DICPCG:  Solving for p, Initial residual = 0.093509, Final residual = 0.00080619, No Iterations 7
DICPCG:  Solving for p, Initial residual = 0.0092907, Final residual = 6.3922e-10, No Iterations 61
time step continuity errors : sum local = 2.3676e-11, global = -6.2837e-13, cumulative = -8.557e-06
ExecutionTime = 268.09 s  ClockTime = 5239 s

surfaceRegion PRESSURE_mantle write:
    none(mantle) of p = 0

surfaceRegion TRACTION_mantle write:
    none(mantle) of wallShearStress = (0 0 0)

I get past the save

Courant Number mean: 0.11791 max: 0.61923
0.0039

Time = 0.0040

Reading pointDisplacement

prev_runTime0.0039
GAMG:  Solving for cellDisplacementx, Initial residual = 0.10323, Final residual = 7.5428e-07, No Iterations 8
GAMG:  Solving for cellDisplacementy, Initial residual = 0.069943, Final residual = 4.3675e-07, No Iterations 8
GAMG:  Solving for cellDisplacementz, Initial residual = 0.068491, Final residual = 4.4513e-07, No Iterations 8
PIMPLE: iteration 1
smoothSolver:  Solving for Ux, Initial residual = 0.085261, Final residual = 0.00041678, No Iterations 1
smoothSolver:  Solving for Uy, Initial residual = 0.07622, Final residual = 0.00029642, No Iterations 1
smoothSolver:  Solving for Uz, Initial residual = 0.064982, Final residual = 0.00028728, No Iterations 1
DICPCG:  Solving for p, Initial residual = 0.39767, Final residual = 0.0033637, No Iterations 40
DICPCG:  Solving for p, Initial residual = 0.03972, Final residual = 0.00035005, No Iterations 21
time step continuity errors : sum local = 2.8348e-05, global = 9.0597e-06, cumulative = 5.027e-07
PIMPLE: iteration 2
smoothSolver:  Solving for Ux, Initial residual = 0.05612, Final residual = 0.0001554, No Iterations 1
smoothSolver:  Solving for Uy, Initial residual = 0.017048, Final residual = 0.00010142, No Iterations 1
smoothSolver:  Solving for Uz, Initial residual = 0.01156, Final residual = 7.1354e-05, No Iterations 1
DICPCG:  Solving for p, Initial residual = 0.065536, Final residual = 0.00053705, No Iterations 38
DICPCG:  Solving for p, Initial residual = 0.015646, Final residual = 0.00014592, No Iterations 35
time step continuity errors : sum local = 8.8264e-06, global = 2.1539e-07, cumulative = 7.1808e-07
PIMPLE: iteration 3
smoothSolver:  Solving for Ux, Initial residual = 0.033479, Final residual = 1.0487e-08, No Iterations 3
smoothSolver:  Solving for Uy, Initial residual = 0.012364, Final residual = 8.6672e-09, No Iterations 3
smoothSolver:  Solving for Uz, Initial residual = 0.0088366, Final residual = 3.1518e-09, No Iterations 3
DICPCG:  Solving for p, Initial residual = 0.046559, Final residual = 0.00030774, No Iterations 33
DICPCG:  Solving for p, Initial residual = 0.0072944, Final residual = 9.386e-10, No Iterations 61
time step continuity errors : sum local = 7.2245e-11, global = 2.2518e-12, cumulative = 7.1809e-07
ExecutionTime = 269.2 s  ClockTime = 5257 s

surfaceRegion PRESSURE_mantle write:
    none(mantle) of p = 0

surfaceRegion TRACTION_mantle write:
    none(mantle) of wallShearStress = (0 0 0)

I get past the save

