/*---------------------------------------------------------------------------*\
  =========                 |
  \\      /  F ield         | OpenFOAM: The Open Source CFD Toolbox
   \\    /   O peration     | Website:  https://openfoam.org
    \\  /    A nd           | Version:  8
     \\/     M anipulation  |
\*---------------------------------------------------------------------------*/
Build  : 8
Exec   : blockMesh
Date   : Dec 05 2023
Time   : 14:38:10
Host   : "cfdclu60.ugent.be"
PID    : 14498
I/O    : uncollated
Case   : /lusers/temp/mathieu/wire_drawing/CFD
nProcs : 1
sigFpe : Enabling floating point exception trapping (FOAM_SIGFPE).
fileModificationChecking : Monitoring run-time modified files using timeStampMaster (fileModificationSkew 10)
allowSystemOperations : Allowing user-supplied system call operations

// * * * * * * * * * * * * * * * * * * * * * * * * * * * * * * * * * * * * * //
Create time

Deleting polyMesh directory
    "/lusers/temp/mathieu/wire_drawing/CFD/constant/polyMesh"
Creating block mesh from
    "system/blockMeshDict"
Creating block edges
No non-planar block faces defined
Creating topology blocks
Creating topology patches

Creating block mesh topology

Check topology

	Basic statistics
		Number of internal faces : 0
		Number of boundary faces : 6
		Number of defined boundary faces : 6
		Number of undefined boundary faces : 0
	Checking patch -> block consistency

Creating block offsets
Creating merge list .

Creating polyMesh from blockMesh
Creating patches
Creating cells
Creating points with scale 0.001
    Block 0 cell size :
        i : 3.50000000000006e-05 .. 3.50000000000001e-05 3.49998399473036e-05 .. 3.50045668856064e-05 3.50000000000006e-05 .. 3.50000000000001e-05 3.49998399473036e-05 .. 3.50045668856064e-05 
        j : 1.85803708721239e-05 1.83769412778778e-05 1.85803708721239e-05 1.83769412778778e-05 
        k : 6.5429081048004e-05 6.5429081048004e-05 6.70500098369295e-05 6.7032262887044e-05 

Writing polyMesh
----------------
Mesh Information
----------------
  boundingBox: (-0.003 0.0007492861661864 -4.0008720074167e-05) (0.0005 0.00091635034447154 4.0008720074167e-05)
  nPoints: 2020
  nCells: 900
  nFaces: 3709
  nInternalFaces: 1691
----------------
Patches
----------------
  patch 0 (start: 1691 size: 100) name: dieWall
  patch 1 (start: 1791 size: 9) name: outlet
  patch 2 (start: 1800 size: 100) name: Wire
  patch 3 (start: 1900 size: 9) name: inlet
  patch 4 (start: 1909 size: 900) name: back
  patch 5 (start: 2809 size: 900) name: front

End

