1

   Abaqus 6.14-1                                  Date 01-Dec-2020   Time 10:19:43
   For use at UNIVERSITEIT GENT VZW under license from Dassault Systemes or its subsidiary.

 Tube                                                                            
                                                                                 
 STEP    1     INCREMENT     1     STEP TIME    0.00    


                        S T E P       1     D Y N A M I C   A N A L Y S I S - I M P L I C I T  I N T E G R A T I O N


                                                                                          

          DYNAMIC APPLICATION PACKED SCHEME IS                 QUASI-STATIC        
          BACKWARD EULER (BWE) TIME INTEGRATOR IS USED

          FIXED TIME INCREMENTS
          TIME INCREMENT IS                                    1.000E-04
          TIME PERIOD IS                                       1.000E-04

          THE HALF-INCREMENT RESIDUALS WILL NOT BE CALCULATED

          INITIAL ACCELERATIONS WILL NOT BE CALCULATED
          AGGRESSIVE   TIME INCREMENTATION IS USED
          STEP AMPLITUDE IS                                    RAMP

 CONVERGENCE TOLERANCE PARAMETERS FOR FORCE    
     CRITERION FOR RESIDUAL FORCE     FOR A NONLINEAR PROBLEM          5.000E-03
     CRITERION FOR DISP.    CORRECTION IN A NONLINEAR PROBLEM          1.000E-02
     INITIAL VALUE OF TIME AVERAGE FORCE                               1.000E-02
     AVERAGE FORCE     IS TIME AVERAGE FORCE    
     ALTERNATE CRIT. FOR RESIDUAL FORCE     FOR A NONLINEAR PROBLEM    2.000E-02
     CRITERION FOR ZERO FORCE     RELATIVE TO TIME AVRG. FORCE         1.000E-05
     CRITERION FOR RESIDUAL FORCE     WHEN THERE IS ZERO FLUX          1.000E-05
     CRITERION FOR DISP.    CORRECTION WHEN THERE IS ZERO FLUX         1.000E-03
     CRITERION FOR RESIDUAL FORCE     FOR A LINEAR INCREMENT           1.000E-08
     FIELD CONVERSION RATIO                                             1.00    
     CRITERION FOR ZERO FORCE     REL. TO TIME AVRG. MAX. FORCE        1.000E-05
     CRITERION FOR ZERO DISP.    RELATIVE TO CHARACTERISTIC LENGTH     1.000E-08

 CONVERGENCE TOLERANCE PARAMETERS FOR MOMENT   
     CRITERION FOR RESIDUAL MOMENT    FOR A NONLINEAR PROBLEM          5.000E-03
     CRITERION FOR ROTATION CORRECTION IN A NONLINEAR PROBLEM          1.000E-02
     INITIAL VALUE OF TIME AVERAGE MOMENT                              1.000E-02
     AVERAGE MOMENT    IS TIME AVERAGE MOMENT   
     ALTERNATE CRIT. FOR RESIDUAL MOMENT    FOR A NONLINEAR PROBLEM    2.000E-02
     CRITERION FOR ZERO MOMENT    RELATIVE TO TIME AVRG. MOMENT        1.000E-05
     CRITERION FOR RESIDUAL MOMENT    WHEN THERE IS ZERO FLUX          1.000E-05
     CRITERION FOR ROTATION CORRECTION WHEN THERE IS ZERO FLUX         1.000E-03
     CRITERION FOR RESIDUAL MOMENT    FOR A LINEAR INCREMENT           1.000E-08
     FIELD CONVERSION RATIO                                             1.00    
     CRITERION FOR ZERO MOMENT    REL. TO TIME AVRG. MAX. MOMENT       1.000E-05

     VOLUMETRIC STRAIN COMPATIBILITY TOLERANCE FOR HYBRID SOLIDS       1.000E-05
     AXIAL STRAIN COMPATIBILITY TOLERANCE FOR HYBRID BEAMS             1.000E-05
     TRANS. SHEAR STRAIN COMPATIBILITY TOLERANCE FOR HYBRID BEAMS      1.000E-05
     SOFT CONTACT CONSTRAINT COMPATIBILITY TOLERANCE FOR P>P0          5.000E-03
     SOFT CONTACT CONSTRAINT COMPATIBILITY TOLERANCE FOR P=0.0         0.100    
     CONTACT FORCE ERROR TOLERANCE FOR CONVERT SDI=YES                 1.00    
     DISPLACEMENT COMPATIBILITY TOLERANCE FOR DCOUP ELEMENTS           1.000E-05
     ROTATION COMPATIBILITY TOLERANCE FOR DCOUP ELEMENTS               1.000E-05

 EQUILIBRIUM WILL BE CHECKED FOR SEVERE DISCONTINUITY ITERATIONS

 ITERATION CONTROL PARAMETERS:
     FIRST EQUILIBRIUM ITERATION FOR CONSECUTIVE DIVERGENCE CHECK              4
     EQUILIBRIUM ITERATION AFTER WHICH ALTERNATE RESIDUAL IS USED              9
     MAXIMUM EQUILIBRIUM ITERATIONS ALLOWED                                   16
     MAXIMUM ITERATIONS FOR SEVERE DISCONTINUITIES                            12
     GLOBAL STABILIZATION CONTROL IS NOT USED

          PRINT OF INCREMENT NUMBER, TIME, ETC., EVERY    1  INCREMENTS

     RESTART FILE WILL BE WRITTEN EVERY 99999  INCREMENTS

     ONLY THE LATEST INCREMENT WILL BE RETAINED

     THE MAXIMUM NUMBER OF INCREMENTS IN THIS STEP IS                       1

          LARGE DISPLACEMENT THEORY WILL BE USED

     LINEAR EXTRAPOLATION WILL BE USED

     CHARACTERISTIC ELEMENT LENGTH     3.997E-03

     DETAILS REGARDING ACTUAL SOLUTION WAVEFRONT REQUESTED

     DETAILED OUTPUT OF DIAGNOSTICS TO DATABASE REQUESTED

     PRINT OF INCREMENT NUMBER, TIME, ETC., TO THE MESSAGE FILE EVERY     1  INCREMENTS

     COLLECTING MODEL CONSTRAINT INFORMATION FOR OVERCONSTRAINT CHECKS

     COLLECTING STEP CONSTRAINT INFORMATION FOR OVERCONSTRAINT CHECKS


  INCREMENT     1 STARTS. ATTEMPT NUMBER  1, TIME INCREMENT  1.000E-04

  NUMBER OF EQUATIONS =     1824     NUMBER OF FLOATING PT. OPERATIONS =  4.65E+07

     CHECK POINT   START OF SOLVER    

     CHECK POINT  END OF SOLVER       

       ELAPSED USER TIME (SEC)      =  4.00000E-02
       ELAPSED SYSTEM TIME (SEC)    =  1.00000E-02
       ELAPSED TOTAL CPU TIME (SEC) =  5.00000E-02
       ELAPSED WALLCLOCK TIME (SEC) =          0

               CONVERGENCE CHECKS FOR EQUILIBRIUM ITERATION     1


 AVERAGE FORCE                      3.390E-05   TIME AVG. FORCE       3.390E-05
 LARGEST RESIDUAL FORCE            -1.109E-05   AT NODE        293   DOF  1
   INSTANCE: PART-1-1                                                                        
 LARGEST INCREMENT OF DISP.         5.540E-06   AT NODE        293   DOF  2
   INSTANCE: PART-1-1                                                                        
 LARGEST CORRECTION TO DISP.        5.540E-06   AT NODE        293   DOF  2
   INSTANCE: PART-1-1                                                                        
          FORCE     EQUILIBRIUM NOT ACHIEVED WITHIN TOLERANCE.

 AVERAGE MOMENT                     1.731E-08   TIME AVG. MOMENT      1.000E-02
 LARGEST RESIDUAL MOMENT           -1.889E-09   AT NODE        293   DOF  6
   INSTANCE: PART-1-1                                                                        
 LARGEST INCREMENT OF ROTATION      2.402E-03   AT NODE         16   DOF  6
   INSTANCE: PART-1-1                                                                        
 LARGEST CORRECTION TO ROTATION     2.402E-03   AT NODE         16   DOF  6
   INSTANCE: PART-1-1                                                                        
          THERE IS ZERO MOMENT    EVERYWHERE
 

 ***WARNING: THERE IS ZERO MOMENT EVERYWHERE IN THE MODEL BASED ON THE DEFAULT 
             CRITERION. PLEASE CHECK THE VALUE OF THE AVERAGE MOMENT DURING THE 
             CURRENT ITERATION TO VERIFY THAT THE MOMENT IS SMALL ENOUGH TO BE 
             TREATED AS ZERO. IF NOT, PLEASE USE THE SOLUTION CONTROLS TO RESET 
             THE CRITERION FOR ZERO MOMENT.

  NUMBER OF EQUATIONS =     1824     NUMBER OF FLOATING PT. OPERATIONS =  4.65E+07

     CHECK POINT   START OF SOLVER    

     CHECK POINT  END OF SOLVER       

       ELAPSED USER TIME (SEC)      =  2.00000E-02
       ELAPSED SYSTEM TIME (SEC)    =   0.0000    
       ELAPSED TOTAL CPU TIME (SEC) =  2.00000E-02
       ELAPSED WALLCLOCK TIME (SEC) =          0

               CONVERGENCE CHECKS FOR EQUILIBRIUM ITERATION     2


 AVERAGE FORCE                      3.391E-05   TIME AVG. FORCE       3.391E-05
 LARGEST RESIDUAL FORCE             5.500E-09   AT NODE        281   DOF  3
   INSTANCE: PART-1-1                                                                        
 LARGEST INCREMENT OF DISP.         5.540E-06   AT NODE        293   DOF  2
   INSTANCE: PART-1-1                                                                        
 LARGEST CORRECTION TO DISP.        6.055E-09   AT NODE         97   DOF  1
   INSTANCE: PART-1-1                                                                        
          THE FORCE     EQUILIBRIUM EQUATIONS HAVE CONVERGED

 AVERAGE MOMENT                     1.732E-08   TIME AVG. MOMENT      1.000E-02
 LARGEST RESIDUAL MOMENT           -1.977E-12   AT NODE        293   DOF  6
   INSTANCE: PART-1-1                                                                        
 LARGEST INCREMENT OF ROTATION      2.405E-03   AT NODE         16   DOF  6
   INSTANCE: PART-1-1                                                                        
 LARGEST CORRECTION TO ROTATION    -6.729E-06   AT NODE         97   DOF  6
   INSTANCE: PART-1-1                                                                        
          THERE IS ZERO MOMENT    EVERYWHERE
 

 ***WARNING: THERE IS ZERO MOMENT EVERYWHERE IN THE MODEL BASED ON THE DEFAULT 
             CRITERION. PLEASE CHECK THE VALUE OF THE AVERAGE MOMENT DURING THE 
             CURRENT ITERATION TO VERIFY THAT THE MOMENT IS SMALL ENOUGH TO BE 
             TREATED AS ZERO. IF NOT, PLEASE USE THE SOLUTION CONTROLS TO RESET 
             THE CRITERION FOR ZERO MOMENT.

 ITERATION SUMMARY FOR THE INCREMENT:   2 TOTAL ITERATIONS, OF WHICH
   0 ARE SEVERE DISCONTINUITY ITERATIONS AND  2 ARE EQUILIBRIUM ITERATIONS.

 TIME INCREMENT COMPLETED  1.000E-04,  FRACTION OF STEP COMPLETED   1.00    
 STEP TIME COMPLETED       1.000E-04,  TOTAL TIME COMPLETED        1.000E-04

     RESTART INFORMATION WRITTEN IN STEP   1  AFTER INCREMENT     1


          THE ANALYSIS HAS BEEN COMPLETED



     ANALYSIS SUMMARY:
     TOTAL OF          1  INCREMENTS
                       0  CUTBACKS IN AUTOMATIC INCREMENTATION
                       2  ITERATIONS INCLUDING CONTACT ITERATIONS IF PRESENT
                       2  PASSES THROUGH THE EQUATION SOLVER OF WHICH 
                       2  INVOLVE MATRIX DECOMPOSITION, INCLUDING
                       0  DECOMPOSITION(S) OF THE MASS MATRIX
                       1  REORDERING OF EQUATIONS TO MINIMIZE WAVEFRONT
                       0  ADDITIONAL RESIDUAL EVALUATIONS FOR LINE SEARCHES
                       0  ADDITIONAL OPERATOR EVALUATIONS FOR LINE SEARCHES
                       1  WARNING MESSAGES DURING USER INPUT PROCESSING
                       2  WARNING MESSAGES DURING ANALYSIS
                       0  ANALYSIS WARNINGS ARE NUMERICAL PROBLEM MESSAGES
                       0  ANALYSIS WARNINGS ARE NEGATIVE EIGENVALUE MESSAGES
                       0  ERROR MESSAGES



     JOB TIME SUMMARY
       USER TIME (SEC)      =  0.25000    
       SYSTEM TIME (SEC)    =  4.00000E-02
       TOTAL CPU TIME (SEC) =  0.29000    
       WALLCLOCK TIME (SEC) =          0
