 Abaqus/Standard 6.14-1                  DATE 01-Dec-2020 TIME 11:41:33
 SUMMARY OF JOB INFORMATION:
 STEP  INC ATT SEVERE EQUIL TOTAL  TOTAL      STEP       INC OF       DOF    IF
               DISCON ITERS ITERS  TIME/    TIME/LPF    TIME/LPF    MONITOR RIKS
               ITERS               FREQ
  39     1   1     0     5     5  0.00390    0.000100   0.0001000 
                          
 THE ANALYSIS HAS COMPLETED SUCCESSFULLY
