 Abaqus/Standard 6.14-1                  DATE 01-Dec-2020 TIME 11:12:19
 SUMMARY OF JOB INFORMATION:
 STEP  INC ATT SEVERE EQUIL TOTAL  TOTAL      STEP       INC OF       DOF    IF
               DISCON ITERS ITERS  TIME/    TIME/LPF    TIME/LPF    MONITOR RIKS
               ITERS               FREQ
  27     1   1     0     3     3  0.00270    0.000100   0.0001000 
                          
 THE ANALYSIS HAS COMPLETED SUCCESSFULLY
