 Abaqus/Standard 6.14-1                  DATE 18-Nov-2020 TIME 13:21:49
 SUMMARY OF JOB INFORMATION:
 STEP  INC ATT SEVERE EQUIL TOTAL  TOTAL      STEP       INC OF       DOF    IF
               DISCON ITERS ITERS  TIME/    TIME/LPF    TIME/LPF    MONITOR RIKS
               ITERS               FREQ
  37     1   1     0     4     4  0.00370    0.000100   0.0001000 
                          
 THE ANALYSIS HAS COMPLETED SUCCESSFULLY
