 Abaqus/Standard 6.14-1                  DATE 07-Jan-2021 TIME 16:08:55
 SUMMARY OF JOB INFORMATION:
 STEP  INC ATT SEVERE EQUIL TOTAL  TOTAL      STEP       INC OF       DOF    IF
               DISCON ITERS ITERS  TIME/    TIME/LPF    TIME/LPF    MONITOR RIKS
               ITERS               FREQ
   1     1   1     0     1     1  1.00e-06   1.00e-06   1.000e-06 
                          
 THE ANALYSIS HAS COMPLETED SUCCESSFULLY
