/*---------------------------------------------------------------------------*\
| =========                 |                                                 |
| \\      /  F ield         | OpenFOAM: The Open Source CFD Toolbox           |
|  \\    /   O peration     | Version:  4.1                                   |
|   \\  /    A nd           | Web:      www.OpenFOAM.org                      |
|    \\/     M anipulation  |                                                 |
\*---------------------------------------------------------------------------*/
Build  : 4.1
Exec   : CoCoNuT_pimpleFoam -parallel
Date   : Dec 01 2020
Time   : 11:45:58
Host   : "cfdclu27.ugent.be"
PID    : 46990
Case   : /lusers/temp/mathieu/PycharmProjects/coconut/test_examples/tube_OpenFoam3d_abaqus3d2/CFD
nProcs : 4
Slaves : 
3
(
"cfdclu27.ugent.be.46991"
"cfdclu27.ugent.be.46992"
"cfdclu27.ugent.be.46993"
)

Pstream initialized with:
    floatTransfer      : 0
    nProcsSimpleSum    : 0
    commsType          : nonBlocking
    polling iterations : 0
sigFpe : Enabling floating point exception trapping (FOAM_SIGFPE).
fileModificationChecking : Monitoring run-time modified files using timeStampMaster
allowSystemOperations : Allowing user-supplied system call operations

// * * * * * * * * * * * * * * * * * * * * * * * * * * * * * * * * * * * * * //
Create time

Create mesh for time = 0.0000

Selecting dynamicFvMesh dynamicMotionSolverFvMesh
Selecting motion solver: displacementLaplacian
Selecting motion diffusion: inverseDistance

PIMPLE: no residual control data found. Calculations will employ 3 corrector loops

Reading field p

Reading field U

Reading/calculating face flux field phi

Selecting incompressible transport model Newtonian
Selecting turbulence model type laminar
No MRF models present

Reading/calculating face velocity Uf

No finite volume options present

Courant Number mean: 0 max: 0
surfaceRegion PRESSURE_mantle:
    total faces  = 1536
    total area   = 0.0015683


wallShearStress wallShearStress:
    processing all wall patches

surfaceRegion TRACTION_mantle:
    total faces  = 1536
    total area   = 0.0015683


Courant Number mean: 0 max: 0
0.0000

Time = 0.0001

Reading pointDisplacement

prev_runTime0.0000
GAMG:  Solving for cellDisplacementx, Initial residual = 0, Final residual = 0, No Iterations 0
GAMG:  Solving for cellDisplacementy, Initial residual = 0, Final residual = 0, No Iterations 0
GAMG:  Solving for cellDisplacementz, Initial residual = 0, Final residual = 0, No Iterations 0
PIMPLE: iteration 1
smoothSolver:  Solving for Ux, Initial residual = 1, Final residual = 1.1796e-06, No Iterations 1
smoothSolver:  Solving for Uy, Initial residual = 0.73907, Final residual = 1.096e-05, No Iterations 1
smoothSolver:  Solving for Uz, Initial residual = 0.73907, Final residual = 1.0958e-05, No Iterations 1
DICPCG:  Solving for p, Initial residual = 1, Final residual = 0.0076971, No Iterations 39
DICPCG:  Solving for p, Initial residual = 0.0038566, Final residual = 3.821e-05, No Iterations 14
time step continuity errors : sum local = 2.7441e-08, global = -4.7141e-09, cumulative = -4.7141e-09
PIMPLE: iteration 2
smoothSolver:  Solving for Ux, Initial residual = 0.28312, Final residual = 6.7698e-06, No Iterations 1
smoothSolver:  Solving for Uy, Initial residual = 0.1441, Final residual = 1.4676e-06, No Iterations 1
smoothSolver:  Solving for Uz, Initial residual = 0.14466, Final residual = 1.4518e-06, No Iterations 1
DICPCG:  Solving for p, Initial residual = 0.19749, Final residual = 0.0014486, No Iterations 40
DICPCG:  Solving for p, Initial residual = 0.0012096, Final residual = 9.8828e-06, No Iterations 14
time step continuity errors : sum local = 7.389e-09, global = -1.2119e-09, cumulative = -5.926e-09
PIMPLE: iteration 3
smoothSolver:  Solving for Ux, Initial residual = 0.62744, Final residual = 8.6326e-09, No Iterations 2
smoothSolver:  Solving for Uy, Initial residual = 0.035001, Final residual = 3.1037e-10, No Iterations 2
smoothSolver:  Solving for Uz, Initial residual = 0.032874, Final residual = 3.3467e-10, No Iterations 2
DICPCG:  Solving for p, Initial residual = 0.046633, Final residual = 0.00037451, No Iterations 38
DICPCG:  Solving for p, Initial residual = 0.00037184, Final residual = 9.6816e-10, No Iterations 51
time step continuity errors : sum local = 9.8897e-13, global = 4.4772e-15, cumulative = -5.926e-09
ExecutionTime = 0.46 s  ClockTime = 7 s

surfaceRegion PRESSURE_mantle write:
    none(mantle) of p = 0

surfaceRegion TRACTION_mantle write:
    none(mantle) of wallShearStress = (0 0 0)

I get past the save

Reading pointDisplacement

prev_runTime0.0000
GAMG:  Solving for cellDisplacementx, Initial residual = 1, Final residual = 4.5091e-06, No Iterations 5
GAMG:  Solving for cellDisplacementy, Initial residual = 1, Final residual = 4.069e-06, No Iterations 6
GAMG:  Solving for cellDisplacementz, Initial residual = 1, Final residual = 3.4807e-06, No Iterations 6
PIMPLE: iteration 1
smoothSolver:  Solving for Ux, Initial residual = 0.28799, Final residual = 4.4935e-06, No Iterations 1
smoothSolver:  Solving for Uy, Initial residual = 0.24121, Final residual = 7.6935e-06, No Iterations 1
smoothSolver:  Solving for Uz, Initial residual = 0.2432, Final residual = 7.7507e-06, No Iterations 1
DICPCG:  Solving for p, Initial residual = 0.026282, Final residual = 0.00024061, No Iterations 38
DICPCG:  Solving for p, Initial residual = 0.0040669, Final residual = 3.2097e-05, No Iterations 6
time step continuity errors : sum local = 2.4232e-08, global = -2.3908e-09, cumulative = -8.3168e-09
PIMPLE: iteration 2
smoothSolver:  Solving for Ux, Initial residual = 0.13147, Final residual = 3.5958e-06, No Iterations 1
smoothSolver:  Solving for Uy, Initial residual = 0.1313, Final residual = 5.4495e-06, No Iterations 1
smoothSolver:  Solving for Uz, Initial residual = 0.1313, Final residual = 5.4419e-06, No Iterations 1
DICPCG:  Solving for p, Initial residual = 0.0044175, Final residual = 2.7558e-05, No Iterations 38
DICPCG:  Solving for p, Initial residual = 0.00062358, Final residual = 5.6904e-06, No Iterations 5
time step continuity errors : sum local = 4.2717e-09, global = -2.5642e-10, cumulative = -8.5733e-09
PIMPLE: iteration 3
smoothSolver:  Solving for Ux, Initial residual = 0.057076, Final residual = 7.4721e-10, No Iterations 2
smoothSolver:  Solving for Uy, Initial residual = 0.062759, Final residual = 1.3541e-09, No Iterations 2
smoothSolver:  Solving for Uz, Initial residual = 0.062763, Final residual = 1.3531e-09, No Iterations 2
DICPCG:  Solving for p, Initial residual = 0.0031478, Final residual = 1.982e-05, No Iterations 38
DICPCG:  Solving for p, Initial residual = 0.0003834, Final residual = 7.4688e-10, No Iterations 50
time step continuity errors : sum local = 7.9591e-13, global = 2.0351e-14, cumulative = -8.5732e-09
ExecutionTime = 1.13 s  ClockTime = 20 s

surfaceRegion PRESSURE_mantle write:
    none(mantle) of p = 0

surfaceRegion TRACTION_mantle write:
    none(mantle) of wallShearStress = (0 0 0)

I get past the save

Reading pointDisplacement

prev_runTime0.0000
GAMG:  Solving for cellDisplacementx, Initial residual = 0.97884, Final residual = 3.0314e-06, No Iterations 5
GAMG:  Solving for cellDisplacementy, Initial residual = 0.97364, Final residual = 2.1459e-06, No Iterations 6
GAMG:  Solving for cellDisplacementz, Initial residual = 0.97364, Final residual = 9.6902e-06, No Iterations 5
PIMPLE: iteration 1
smoothSolver:  Solving for Ux, Initial residual = 0.00068796, Final residual = 2.0516e-08, No Iterations 1
smoothSolver:  Solving for Uy, Initial residual = 0.08421, Final residual = 1.2603e-06, No Iterations 1
smoothSolver:  Solving for Uz, Initial residual = 0.084209, Final residual = 1.2577e-06, No Iterations 1
DICPCG:  Solving for p, Initial residual = 0.5402, Final residual = 0.0047165, No Iterations 39
DICPCG:  Solving for p, Initial residual = 0.027498, Final residual = 0.00025196, No Iterations 7
time step continuity errors : sum local = 1.1339e-06, global = -8.6266e-08, cumulative = -9.4839e-08
PIMPLE: iteration 2
smoothSolver:  Solving for Ux, Initial residual = 0.13297, Final residual = 3.0981e-05, No Iterations 1
smoothSolver:  Solving for Uy, Initial residual = 0.13039, Final residual = 2.5842e-05, No Iterations 1
smoothSolver:  Solving for Uz, Initial residual = 0.13039, Final residual = 2.5833e-05, No Iterations 1
DICPCG:  Solving for p, Initial residual = 0.044134, Final residual = 0.00028497, No Iterations 39
DICPCG:  Solving for p, Initial residual = 0.0051806, Final residual = 5.0985e-05, No Iterations 5
time step continuity errors : sum local = 1.8491e-07, global = -1.3161e-08, cumulative = -1.08e-07
PIMPLE: iteration 3
smoothSolver:  Solving for Ux, Initial residual = 0.05847, Final residual = 1.0269e-08, No Iterations 2
smoothSolver:  Solving for Uy, Initial residual = 0.062965, Final residual = 9.6761e-09, No Iterations 2
smoothSolver:  Solving for Uz, Initial residual = 0.06301, Final residual = 9.6748e-09, No Iterations 2
DICPCG:  Solving for p, Initial residual = 0.028744, Final residual = 0.00017363, No Iterations 39
DICPCG:  Solving for p, Initial residual = 0.0036889, Final residual = 8.3913e-10, No Iterations 54
time step continuity errors : sum local = 3.757e-12, global = -8.8957e-14, cumulative = -1.08e-07
ExecutionTime = 1.89 s  ClockTime = 36 s

surfaceRegion PRESSURE_mantle write:
    none(mantle) of p = 0

surfaceRegion TRACTION_mantle write:
    none(mantle) of wallShearStress = (0 0 0)

I get past the save

Reading pointDisplacement

prev_runTime0.0000
GAMG:  Solving for cellDisplacementx, Initial residual = 0.27494, Final residual = 2.7366e-06, No Iterations 4
GAMG:  Solving for cellDisplacementy, Initial residual = 0.61675, Final residual = 1.1126e-06, No Iterations 6
GAMG:  Solving for cellDisplacementz, Initial residual = 0.61675, Final residual = 1.1411e-06, No Iterations 6
PIMPLE: iteration 1
smoothSolver:  Solving for Ux, Initial residual = 0.00039976, Final residual = 1.0205e-07, No Iterations 1
smoothSolver:  Solving for Uy, Initial residual = 0.00083688, Final residual = 1.9063e-07, No Iterations 1
smoothSolver:  Solving for Uz, Initial residual = 0.0008369, Final residual = 1.9061e-07, No Iterations 1
DICPCG:  Solving for p, Initial residual = 0.25674, Final residual = 0.0020781, No Iterations 37
DICPCG:  Solving for p, Initial residual = 0.036776, Final residual = 0.00032692, No Iterations 6
time step continuity errors : sum local = 1.0056e-06, global = 1.3903e-08, cumulative = -9.4097e-08
PIMPLE: iteration 2
smoothSolver:  Solving for Ux, Initial residual = 0.37904, Final residual = 3.8046e-05, No Iterations 1
smoothSolver:  Solving for Uy, Initial residual = 0.1979, Final residual = 1.9238e-05, No Iterations 1
smoothSolver:  Solving for Uz, Initial residual = 0.19794, Final residual = 1.9227e-05, No Iterations 1
DICPCG:  Solving for p, Initial residual = 0.068681, Final residual = 0.00062536, No Iterations 36
DICPCG:  Solving for p, Initial residual = 0.0082227, Final residual = 6.528e-05, No Iterations 6
time step continuity errors : sum local = 1.3413e-07, global = -3.7995e-12, cumulative = -9.4101e-08
PIMPLE: iteration 3
smoothSolver:  Solving for Ux, Initial residual = 0.16961, Final residual = 1.1387e-08, No Iterations 2
smoothSolver:  Solving for Uy, Initial residual = 0.11166, Final residual = 7.6319e-09, No Iterations 2
smoothSolver:  Solving for Uz, Initial residual = 0.11165, Final residual = 7.6255e-09, No Iterations 2
DICPCG:  Solving for p, Initial residual = 0.034263, Final residual = 0.00022348, No Iterations 37
DICPCG:  Solving for p, Initial residual = 0.004015, Final residual = 8.6422e-10, No Iterations 55
time step continuity errors : sum local = 1.975e-12, global = -5.2082e-14, cumulative = -9.4101e-08
ExecutionTime = 2.32 s  ClockTime = 48 s

surfaceRegion PRESSURE_mantle write:
    none(mantle) of p = 0

surfaceRegion TRACTION_mantle write:
    none(mantle) of wallShearStress = (0 0 0)

I get past the save

Reading pointDisplacement

prev_runTime0.0000
GAMG:  Solving for cellDisplacementx, Initial residual = 0.24543, Final residual = 9.3537e-07, No Iterations 5
GAMG:  Solving for cellDisplacementy, Initial residual = 0.58992, Final residual = 5.8183e-06, No Iterations 5
GAMG:  Solving for cellDisplacementz, Initial residual = 0.58992, Final residual = 1.3216e-06, No Iterations 6
PIMPLE: iteration 1
smoothSolver:  Solving for Ux, Initial residual = 0.00050604, Final residual = 5.6131e-08, No Iterations 1
smoothSolver:  Solving for Uy, Initial residual = 0.00054379, Final residual = 5.0528e-08, No Iterations 1
smoothSolver:  Solving for Uz, Initial residual = 0.00054376, Final residual = 5.0495e-08, No Iterations 1
DICPCG:  Solving for p, Initial residual = 0.26062, Final residual = 0.0023828, No Iterations 38
DICPCG:  Solving for p, Initial residual = 0.046753, Final residual = 0.00035945, No Iterations 8
time step continuity errors : sum local = 4.4423e-07, global = 2.7776e-08, cumulative = -6.6325e-08
PIMPLE: iteration 2
smoothSolver:  Solving for Ux, Initial residual = 0.30704, Final residual = 1.581e-05, No Iterations 1
smoothSolver:  Solving for Uy, Initial residual = 0.19358, Final residual = 8.1708e-06, No Iterations 1
smoothSolver:  Solving for Uz, Initial residual = 0.19348, Final residual = 8.1503e-06, No Iterations 1
DICPCG:  Solving for p, Initial residual = 0.054136, Final residual = 0.00049534, No Iterations 27
DICPCG:  Solving for p, Initial residual = 0.0076442, Final residual = 7.2943e-05, No Iterations 23
time step continuity errors : sum local = 8.1767e-08, global = -9.8909e-10, cumulative = -6.7314e-08
PIMPLE: iteration 3
smoothSolver:  Solving for Ux, Initial residual = 0.14082, Final residual = 4.2374e-09, No Iterations 2
smoothSolver:  Solving for Uy, Initial residual = 0.10831, Final residual = 2.7608e-09, No Iterations 2
smoothSolver:  Solving for Uz, Initial residual = 0.10845, Final residual = 2.7622e-09, No Iterations 2
DICPCG:  Solving for p, Initial residual = 0.032105, Final residual = 0.00028059, No Iterations 37
DICPCG:  Solving for p, Initial residual = 0.0031252, Final residual = 8.2522e-10, No Iterations 54
time step continuity errors : sum local = 1.251e-12, global = -5.1703e-15, cumulative = -6.7314e-08
ExecutionTime = 2.79 s  ClockTime = 60 s

surfaceRegion PRESSURE_mantle write:
    none(mantle) of p = 0

surfaceRegion TRACTION_mantle write:
    none(mantle) of wallShearStress = (0 0 0)

I get past the save

Reading pointDisplacement

prev_runTime0.0000
GAMG:  Solving for cellDisplacementx, Initial residual = 0.1369, Final residual = 3.9931e-07, No Iterations 5
GAMG:  Solving for cellDisplacementy, Initial residual = 0.52663, Final residual = 5.0203e-06, No Iterations 5
GAMG:  Solving for cellDisplacementz, Initial residual = 0.52663, Final residual = 9.3522e-07, No Iterations 6
PIMPLE: iteration 1
smoothSolver:  Solving for Ux, Initial residual = 0.00032078, Final residual = 1.6136e-08, No Iterations 1
smoothSolver:  Solving for Uy, Initial residual = 0.00051039, Final residual = 3.0204e-08, No Iterations 1
smoothSolver:  Solving for Uz, Initial residual = 0.00051037, Final residual = 3.0165e-08, No Iterations 1
DICPCG:  Solving for p, Initial residual = 0.19679, Final residual = 0.0016134, No Iterations 29
DICPCG:  Solving for p, Initial residual = 0.027712, Final residual = 0.00024859, No Iterations 8
time step continuity errors : sum local = 2.5183e-07, global = 1.8685e-08, cumulative = -4.8629e-08
PIMPLE: iteration 2
smoothSolver:  Solving for Ux, Initial residual = 0.20473, Final residual = 5.4408e-06, No Iterations 1
smoothSolver:  Solving for Uy, Initial residual = 0.16853, Final residual = 9.9002e-06, No Iterations 1
smoothSolver:  Solving for Uz, Initial residual = 0.16847, Final residual = 9.8813e-06, No Iterations 1
DICPCG:  Solving for p, Initial residual = 0.032223, Final residual = 0.00026249, No Iterations 28
DICPCG:  Solving for p, Initial residual = 0.0043903, Final residual = 4.2626e-05, No Iterations 23
time step continuity errors : sum local = 4.0304e-08, global = 1.674e-09, cumulative = -4.6955e-08
PIMPLE: iteration 3
smoothSolver:  Solving for Ux, Initial residual = 0.098608, Final residual = 1.3931e-09, No Iterations 2
smoothSolver:  Solving for Uy, Initial residual = 0.090328, Final residual = 2.8933e-09, No Iterations 2
smoothSolver:  Solving for Uz, Initial residual = 0.090401, Final residual = 2.8941e-09, No Iterations 2
DICPCG:  Solving for p, Initial residual = 0.021615, Final residual = 0.00017272, No Iterations 27
DICPCG:  Solving for p, Initial residual = 0.0020492, Final residual = 8.0535e-10, No Iterations 53
time step continuity errors : sum local = 1.0517e-12, global = -1.6113e-15, cumulative = -4.6955e-08
ExecutionTime = 3.29 s  ClockTime = 74 s

surfaceRegion PRESSURE_mantle write:
    none(mantle) of p = 0

surfaceRegion TRACTION_mantle write:
    none(mantle) of wallShearStress = (0 0 0)

I get past the save

Reading pointDisplacement

prev_runTime0.0000
GAMG:  Solving for cellDisplacementx, Initial residual = 0.09128, Final residual = 8.0492e-07, No Iterations 6
GAMG:  Solving for cellDisplacementy, Initial residual = 0.37232, Final residual = 3.1763e-06, No Iterations 8
GAMG:  Solving for cellDisplacementz, Initial residual = 0.37232, Final residual = 3.5353e-06, No Iterations 7
PIMPLE: iteration 1
smoothSolver:  Solving for Ux, Initial residual = 0.0001708, Final residual = 4.6321e-09, No Iterations 1
smoothSolver:  Solving for Uy, Initial residual = 0.00037135, Final residual = 1.1798e-08, No Iterations 1
smoothSolver:  Solving for Uz, Initial residual = 0.00037121, Final residual = 1.1758e-08, No Iterations 1
DICPCG:  Solving for p, Initial residual = 0.10408, Final residual = 0.00088956, No Iterations 27
DICPCG:  Solving for p, Initial residual = 0.014052, Final residual = 0.00013693, No Iterations 11
time step continuity errors : sum local = 1.2538e-07, global = -1.9345e-08, cumulative = -6.63e-08
PIMPLE: iteration 2
smoothSolver:  Solving for Ux, Initial residual = 0.084823, Final residual = 3.9622e-06, No Iterations 1
smoothSolver:  Solving for Uy, Initial residual = 0.09088, Final residual = 1.7956e-06, No Iterations 1
smoothSolver:  Solving for Uz, Initial residual = 0.090929, Final residual = 1.7898e-06, No Iterations 1
DICPCG:  Solving for p, Initial residual = 0.01657, Final residual = 0.00013044, No Iterations 27
DICPCG:  Solving for p, Initial residual = 0.0021447, Final residual = 1.7736e-05, No Iterations 22
time step continuity errors : sum local = 1.5694e-08, global = -7.5888e-10, cumulative = -6.7059e-08
PIMPLE: iteration 3
smoothSolver:  Solving for Ux, Initial residual = 0.046954, Final residual = 1.0321e-09, No Iterations 2
smoothSolver:  Solving for Uy, Initial residual = 0.051396, Final residual = 4.5628e-10, No Iterations 2
smoothSolver:  Solving for Uz, Initial residual = 0.051338, Final residual = 4.554e-10, No Iterations 2
DICPCG:  Solving for p, Initial residual = 0.015864, Final residual = 0.00013891, No Iterations 18
DICPCG:  Solving for p, Initial residual = 0.0014643, Final residual = 6.6084e-10, No Iterations 53
time step continuity errors : sum local = 8.1675e-13, global = 1.4331e-15, cumulative = -6.7059e-08
ExecutionTime = 3.85 s  ClockTime = 87 s

surfaceRegion PRESSURE_mantle write:
    none(mantle) of p = 0

surfaceRegion TRACTION_mantle write:
    none(mantle) of wallShearStress = (0 0 0)

I get past the save

Reading pointDisplacement

prev_runTime0.0000
GAMG:  Solving for cellDisplacementx, Initial residual = 0.035688, Final residual = 3.0774e-07, No Iterations 6
GAMG:  Solving for cellDisplacementy, Initial residual = 0.18897, Final residual = 1.871e-06, No Iterations 7
GAMG:  Solving for cellDisplacementz, Initial residual = 0.18897, Final residual = 1.4404e-06, No Iterations 7
PIMPLE: iteration 1
smoothSolver:  Solving for Ux, Initial residual = 7.4974e-05, Final residual = 3.2121e-09, No Iterations 1
smoothSolver:  Solving for Uy, Initial residual = 0.00022308, Final residual = 3.4304e-09, No Iterations 1
smoothSolver:  Solving for Uz, Initial residual = 0.00022312, Final residual = 3.4139e-09, No Iterations 1
DICPCG:  Solving for p, Initial residual = 0.053767, Final residual = 0.00050876, No Iterations 20
DICPCG:  Solving for p, Initial residual = 0.0066048, Final residual = 6.0611e-05, No Iterations 13
time step continuity errors : sum local = 5.2435e-08, global = -4.3975e-09, cumulative = -7.1456e-08
PIMPLE: iteration 2
smoothSolver:  Solving for Ux, Initial residual = 0.030159, Final residual = 1.0157e-06, No Iterations 1
smoothSolver:  Solving for Uy, Initial residual = 0.044727, Final residual = 8.67e-07, No Iterations 1
smoothSolver:  Solving for Uz, Initial residual = 0.044696, Final residual = 8.6365e-07, No Iterations 1
DICPCG:  Solving for p, Initial residual = 0.0086101, Final residual = 7.0788e-05, No Iterations 17
DICPCG:  Solving for p, Initial residual = 0.00099379, Final residual = 8.7516e-06, No Iterations 23
time step continuity errors : sum local = 7.4488e-09, global = -1.4932e-09, cumulative = -7.295e-08
PIMPLE: iteration 3
smoothSolver:  Solving for Ux, Initial residual = 0.017031, Final residual = 2.3276e-10, No Iterations 2
smoothSolver:  Solving for Uy, Initial residual = 0.027308, Final residual = 2.0092e-10, No Iterations 2
smoothSolver:  Solving for Uz, Initial residual = 0.027338, Final residual = 2.0092e-10, No Iterations 2
DICPCG:  Solving for p, Initial residual = 0.012519, Final residual = 0.00011379, No Iterations 14
DICPCG:  Solving for p, Initial residual = 0.0010299, Final residual = 8.6327e-10, No Iterations 52
time step continuity errors : sum local = 1.0361e-12, global = -2.2973e-14, cumulative = -7.295e-08
ExecutionTime = 4.43 s  ClockTime = 101 s

surfaceRegion PRESSURE_mantle write:
    none(mantle) of p = 0

surfaceRegion TRACTION_mantle write:
    none(mantle) of wallShearStress = (0 0 0)

I get past the save

Reading pointDisplacement

prev_runTime0.0000
GAMG:  Solving for cellDisplacementx, Initial residual = 0.022946, Final residual = 5.4361e-08, No Iterations 5
GAMG:  Solving for cellDisplacementy, Initial residual = 0.075471, Final residual = 4.9053e-07, No Iterations 5
GAMG:  Solving for cellDisplacementz, Initial residual = 0.075472, Final residual = 6.289e-07, No Iterations 5
PIMPLE: iteration 1
smoothSolver:  Solving for Ux, Initial residual = 3.589e-05, Final residual = 8.4859e-10, No Iterations 1
smoothSolver:  Solving for Uy, Initial residual = 0.00014628, Final residual = 1.6357e-09, No Iterations 1
smoothSolver:  Solving for Uz, Initial residual = 0.00014627, Final residual = 1.6229e-09, No Iterations 1
DICPCG:  Solving for p, Initial residual = 0.026814, Final residual = 0.00022204, No Iterations 16
DICPCG:  Solving for p, Initial residual = 0.0027698, Final residual = 1.6797e-05, No Iterations 32
time step continuity errors : sum local = 1.4154e-08, global = -1.7318e-10, cumulative = -7.3123e-08
PIMPLE: iteration 2
smoothSolver:  Solving for Ux, Initial residual = 0.010088, Final residual = 2.586e-07, No Iterations 1
smoothSolver:  Solving for Uy, Initial residual = 0.019711, Final residual = 3.7427e-07, No Iterations 1
smoothSolver:  Solving for Uz, Initial residual = 0.019713, Final residual = 3.7298e-07, No Iterations 1
DICPCG:  Solving for p, Initial residual = 0.0044366, Final residual = 3.4614e-05, No Iterations 14
DICPCG:  Solving for p, Initial residual = 0.00042189, Final residual = 4.2119e-06, No Iterations 24
time step continuity errors : sum local = 3.527e-09, global = -4.5616e-10, cumulative = -7.3579e-08
PIMPLE: iteration 3
smoothSolver:  Solving for Ux, Initial residual = 0.0057753, Final residual = 5.7909e-11, No Iterations 2
smoothSolver:  Solving for Uy, Initial residual = 0.012432, Final residual = 8.8605e-11, No Iterations 2
smoothSolver:  Solving for Uz, Initial residual = 0.012434, Final residual = 8.8488e-11, No Iterations 2
DICPCG:  Solving for p, Initial residual = 0.010884, Final residual = 0.00010658, No Iterations 11
DICPCG:  Solving for p, Initial residual = 0.00086706, Final residual = 9.2225e-10, No Iterations 52
time step continuity errors : sum local = 1.0934e-12, global = 2.2919e-14, cumulative = -7.3579e-08
ExecutionTime = 4.89 s  ClockTime = 114 s

surfaceRegion PRESSURE_mantle write:
    none(mantle) of p = 0

surfaceRegion TRACTION_mantle write:
    none(mantle) of wallShearStress = (0 0 0)

I get past the save

Reading pointDisplacement

prev_runTime0.0000
GAMG:  Solving for cellDisplacementx, Initial residual = 0.012294, Final residual = 4.9561e-08, No Iterations 5
GAMG:  Solving for cellDisplacementy, Initial residual = 0.024427, Final residual = 2.2629e-07, No Iterations 5
GAMG:  Solving for cellDisplacementz, Initial residual = 0.024427, Final residual = 2.0714e-07, No Iterations 5
PIMPLE: iteration 1
smoothSolver:  Solving for Ux, Initial residual = 2.1592e-05, Final residual = 2.3163e-10, No Iterations 1
smoothSolver:  Solving for Uy, Initial residual = 0.00011574, Final residual = 9.3425e-10, No Iterations 1
smoothSolver:  Solving for Uz, Initial residual = 0.00011574, Final residual = 9.2258e-10, No Iterations 1
DICPCG:  Solving for p, Initial residual = 0.016321, Final residual = 0.00015364, No Iterations 13
DICPCG:  Solving for p, Initial residual = 0.0014513, Final residual = 1.2767e-05, No Iterations 16
time step continuity errors : sum local = 1.0676e-08, global = -5.9958e-10, cumulative = -7.4178e-08
PIMPLE: iteration 2
smoothSolver:  Solving for Ux, Initial residual = 0.0034556, Final residual = 5.6952e-08, No Iterations 1
smoothSolver:  Solving for Uy, Initial residual = 0.011101, Final residual = 1.8235e-07, No Iterations 1
smoothSolver:  Solving for Uz, Initial residual = 0.011101, Final residual = 1.8142e-07, No Iterations 1
DICPCG:  Solving for p, Initial residual = 0.0029493, Final residual = 2.4158e-05, No Iterations 11
DICPCG:  Solving for p, Initial residual = 0.00024032, Final residual = 2.3341e-06, No Iterations 31
time step continuity errors : sum local = 1.9461e-09, global = -5.8078e-11, cumulative = -7.4237e-08
PIMPLE: iteration 3
smoothSolver:  Solving for Ux, Initial residual = 0.002049, Final residual = 4.7917e-08, No Iterations 1
smoothSolver:  Solving for Uy, Initial residual = 0.0073212, Final residual = 4.315e-11, No Iterations 2
smoothSolver:  Solving for Uz, Initial residual = 0.0073241, Final residual = 4.3149e-11, No Iterations 2
DICPCG:  Solving for p, Initial residual = 0.010416, Final residual = 8.1815e-05, No Iterations 10
DICPCG:  Solving for p, Initial residual = 0.00078507, Final residual = 8.336e-10, No Iterations 52
time step continuity errors : sum local = 9.8538e-13, global = 5.2855e-15, cumulative = -7.4237e-08
ExecutionTime = 5.53 s  ClockTime = 128 s

surfaceRegion PRESSURE_mantle write:
    none(mantle) of p = 0

surfaceRegion TRACTION_mantle write:
    none(mantle) of wallShearStress = (0 0 0)

I get past the save

Reading pointDisplacement

prev_runTime0.0000
GAMG:  Solving for cellDisplacementx, Initial residual = 0.0071792, Final residual = 2.0345e-08, No Iterations 5
GAMG:  Solving for cellDisplacementy, Initial residual = 0.0072584, Final residual = 5.4745e-08, No Iterations 5
GAMG:  Solving for cellDisplacementz, Initial residual = 0.007259, Final residual = 4.1773e-08, No Iterations 5
PIMPLE: iteration 1
smoothSolver:  Solving for Ux, Initial residual = 1.6845e-05, Final residual = 8.6787e-11, No Iterations 1
smoothSolver:  Solving for Uy, Initial residual = 0.00010524, Final residual = 5.4229e-10, No Iterations 1
smoothSolver:  Solving for Uz, Initial residual = 0.00010527, Final residual = 5.3113e-10, No Iterations 1
DICPCG:  Solving for p, Initial residual = 0.013556, Final residual = 0.00013145, No Iterations 9
DICPCG:  Solving for p, Initial residual = 0.0010753, Final residual = 9.8916e-06, No Iterations 21
time step continuity errors : sum local = 8.2485e-09, global = -5.4637e-10, cumulative = -7.4783e-08
PIMPLE: iteration 2
smoothSolver:  Solving for Ux, Initial residual = 0.0017153, Final residual = 2.1204e-08, No Iterations 1
smoothSolver:  Solving for Uy, Initial residual = 0.0085445, Final residual = 5.8984e-08, No Iterations 1
smoothSolver:  Solving for Uz, Initial residual = 0.0085469, Final residual = 5.8236e-08, No Iterations 1
DICPCG:  Solving for p, Initial residual = 0.0025349, Final residual = 2.2472e-05, No Iterations 8
DICPCG:  Solving for p, Initial residual = 0.00018733, Final residual = 1.8557e-06, No Iterations 14
time step continuity errors : sum local = 1.5448e-09, global = -4.1786e-10, cumulative = -7.5201e-08
PIMPLE: iteration 3
smoothSolver:  Solving for Ux, Initial residual = 0.0010757, Final residual = 1.8064e-08, No Iterations 1
smoothSolver:  Solving for Uy, Initial residual = 0.0057506, Final residual = 6.0173e-08, No Iterations 1
smoothSolver:  Solving for Uz, Initial residual = 0.0057515, Final residual = 5.9426e-08, No Iterations 1
DICPCG:  Solving for p, Initial residual = 0.010251, Final residual = 8.6766e-05, No Iterations 9
DICPCG:  Solving for p, Initial residual = 0.00077665, Final residual = 8.7181e-10, No Iterations 52
time step continuity errors : sum local = 1.0294e-12, global = -1.3149e-14, cumulative = -7.5201e-08
ExecutionTime = 6.11 s  ClockTime = 142 s

surfaceRegion PRESSURE_mantle write:
    none(mantle) of p = 0

surfaceRegion TRACTION_mantle write:
    none(mantle) of wallShearStress = (0 0 0)

I get past the save

Courant Number mean: 0.00025796 max: 0.0047853
0.0001

Time = 0.0002

Reading pointDisplacement

prev_runTime0.0001
GAMG:  Solving for cellDisplacementx, Initial residual = 0.26079, Final residual = 9.3807e-07, No Iterations 5
GAMG:  Solving for cellDisplacementy, Initial residual = 0.33143, Final residual = 3.0481e-06, No Iterations 5
GAMG:  Solving for cellDisplacementz, Initial residual = 0.33143, Final residual = 2.4398e-06, No Iterations 5
PIMPLE: iteration 1
smoothSolver:  Solving for Ux, Initial residual = 0.17994, Final residual = 6.7026e-07, No Iterations 1
smoothSolver:  Solving for Uy, Initial residual = 0.25851, Final residual = 1.175e-06, No Iterations 1
smoothSolver:  Solving for Uz, Initial residual = 0.25851, Final residual = 1.1561e-06, No Iterations 1
DICPCG:  Solving for p, Initial residual = 0.078381, Final residual = 0.00041462, No Iterations 41
DICPCG:  Solving for p, Initial residual = 0.0090694, Final residual = 8.7672e-05, No Iterations 8
time step continuity errors : sum local = 6.5489e-08, global = 6.3252e-09, cumulative = -6.8876e-08
PIMPLE: iteration 2
smoothSolver:  Solving for Ux, Initial residual = 0.054344, Final residual = 1.375e-06, No Iterations 1
smoothSolver:  Solving for Uy, Initial residual = 0.033575, Final residual = 1.8753e-07, No Iterations 1
smoothSolver:  Solving for Uz, Initial residual = 0.03358, Final residual = 1.859e-07, No Iterations 1
DICPCG:  Solving for p, Initial residual = 0.033384, Final residual = 0.00017887, No Iterations 41
DICPCG:  Solving for p, Initial residual = 0.0039797, Final residual = 3.8823e-05, No Iterations 8
time step continuity errors : sum local = 2.8557e-08, global = 2.6601e-09, cumulative = -6.6216e-08
PIMPLE: iteration 3
smoothSolver:  Solving for Ux, Initial residual = 0.047921, Final residual = 7.8701e-10, No Iterations 2
smoothSolver:  Solving for Uy, Initial residual = 0.013362, Final residual = 1.7854e-11, No Iterations 2
smoothSolver:  Solving for Uz, Initial residual = 0.013365, Final residual = 1.7767e-11, No Iterations 2
DICPCG:  Solving for p, Initial residual = 0.013771, Final residual = 0.0001203, No Iterations 39
DICPCG:  Solving for p, Initial residual = 0.0012261, Final residual = 7.2599e-10, No Iterations 53
time step continuity errors : sum local = 7.5682e-13, global = 2.5591e-15, cumulative = -6.6216e-08
ExecutionTime = 6.74 s  ClockTime = 155 s

surfaceRegion PRESSURE_mantle write:
    none(mantle) of p = 0

surfaceRegion TRACTION_mantle write:
    none(mantle) of wallShearStress = (0 0 0)

I get past the save

Reading pointDisplacement

prev_runTime0.0001
GAMG:  Solving for cellDisplacementx, Initial residual = 0.33403, Final residual = 3.1419e-06, No Iterations 6
GAMG:  Solving for cellDisplacementy, Initial residual = 0.18756, Final residual = 1.5136e-06, No Iterations 6
GAMG:  Solving for cellDisplacementz, Initial residual = 0.18756, Final residual = 1.4915e-06, No Iterations 6
PIMPLE: iteration 1
smoothSolver:  Solving for Ux, Initial residual = 0.0003253, Final residual = 1.4996e-09, No Iterations 1
smoothSolver:  Solving for Uy, Initial residual = 0.0020423, Final residual = 3.2401e-09, No Iterations 1
smoothSolver:  Solving for Uz, Initial residual = 0.0020423, Final residual = 3.2088e-09, No Iterations 1
DICPCG:  Solving for p, Initial residual = 0.11302, Final residual = 0.00066114, No Iterations 41
DICPCG:  Solving for p, Initial residual = 0.0108, Final residual = 9.4352e-05, No Iterations 8
time step continuity errors : sum local = 1.0256e-07, global = -1.0431e-08, cumulative = -7.6647e-08
PIMPLE: iteration 2
smoothSolver:  Solving for Ux, Initial residual = 0.059793, Final residual = 1.0714e-06, No Iterations 1
smoothSolver:  Solving for Uy, Initial residual = 0.055937, Final residual = 2.6525e-07, No Iterations 1
smoothSolver:  Solving for Uz, Initial residual = 0.05593, Final residual = 2.6106e-07, No Iterations 1
DICPCG:  Solving for p, Initial residual = 0.018408, Final residual = 0.00014929, No Iterations 40
DICPCG:  Solving for p, Initial residual = 0.0020561, Final residual = 1.753e-05, No Iterations 7
time step continuity errors : sum local = 1.5208e-08, global = -1.6379e-09, cumulative = -7.8285e-08
PIMPLE: iteration 3
smoothSolver:  Solving for Ux, Initial residual = 0.029752, Final residual = 1.9231e-10, No Iterations 2
smoothSolver:  Solving for Uy, Initial residual = 0.031524, Final residual = 2.8416e-11, No Iterations 2
smoothSolver:  Solving for Uz, Initial residual = 0.031533, Final residual = 2.8373e-11, No Iterations 2
DICPCG:  Solving for p, Initial residual = 0.019838, Final residual = 0.00013674, No Iterations 40
DICPCG:  Solving for p, Initial residual = 0.0018101, Final residual = 5.7339e-10, No Iterations 54
time step continuity errors : sum local = 6.8598e-13, global = -3.3676e-15, cumulative = -7.8285e-08
ExecutionTime = 7.5 s  ClockTime = 170 s

surfaceRegion PRESSURE_mantle write:
    none(mantle) of p = 0

surfaceRegion TRACTION_mantle write:
    none(mantle) of wallShearStress = (0 0 0)

I get past the save

Reading pointDisplacement

prev_runTime0.0001
GAMG:  Solving for cellDisplacementx, Initial residual = 0.056719, Final residual = 1.1736e-07, No Iterations 5
GAMG:  Solving for cellDisplacementy, Initial residual = 0.0090861, Final residual = 3.0669e-08, No Iterations 6
GAMG:  Solving for cellDisplacementz, Initial residual = 0.0090875, Final residual = 2.4889e-08, No Iterations 6
PIMPLE: iteration 1
smoothSolver:  Solving for Ux, Initial residual = 9.832e-05, Final residual = 1.1005e-09, No Iterations 1
smoothSolver:  Solving for Uy, Initial residual = 0.0001632, Final residual = 7.6927e-10, No Iterations 1
smoothSolver:  Solving for Uz, Initial residual = 0.00016315, Final residual = 7.6213e-10, No Iterations 1
DICPCG:  Solving for p, Initial residual = 0.023073, Final residual = 0.00017938, No Iterations 19
DICPCG:  Solving for p, Initial residual = 0.0018166, Final residual = 1.6729e-05, No Iterations 25
time step continuity errors : sum local = 1.4211e-08, global = -9.5545e-10, cumulative = -7.924e-08
PIMPLE: iteration 2
smoothSolver:  Solving for Ux, Initial residual = 0.0016538, Final residual = 2.8426e-08, No Iterations 1
smoothSolver:  Solving for Uy, Initial residual = 0.0073394, Final residual = 7.9467e-08, No Iterations 1
smoothSolver:  Solving for Uz, Initial residual = 0.0073345, Final residual = 7.8518e-08, No Iterations 1
DICPCG:  Solving for p, Initial residual = 0.0044192, Final residual = 3.5357e-05, No Iterations 17
DICPCG:  Solving for p, Initial residual = 0.0003186, Final residual = 3.1351e-06, No Iterations 24
time step continuity errors : sum local = 2.6558e-09, global = -2.7049e-10, cumulative = -7.951e-08
PIMPLE: iteration 3
smoothSolver:  Solving for Ux, Initial residual = 0.0010065, Final residual = 2.4888e-08, No Iterations 1
smoothSolver:  Solving for Uy, Initial residual = 0.0049868, Final residual = 8.0533e-08, No Iterations 1
smoothSolver:  Solving for Uz, Initial residual = 0.0049829, Final residual = 7.9349e-08, No Iterations 1
DICPCG:  Solving for p, Initial residual = 0.01741, Final residual = 0.00017376, No Iterations 15
DICPCG:  Solving for p, Initial residual = 0.0013212, Final residual = 6.5834e-10, No Iterations 53
time step continuity errors : sum local = 7.8783e-13, global = -1.4916e-14, cumulative = -7.951e-08
ExecutionTime = 8.32 s  ClockTime = 185 s

surfaceRegion PRESSURE_mantle write:
    none(mantle) of p = 0

surfaceRegion TRACTION_mantle write:
    none(mantle) of wallShearStress = (0 0 0)

I get past the save

Reading pointDisplacement

prev_runTime0.0001
GAMG:  Solving for cellDisplacementx, Initial residual = 0.0022068, Final residual = 4.8404e-09, No Iterations 6
GAMG:  Solving for cellDisplacementy, Initial residual = 0.004152, Final residual = 3.4531e-08, No Iterations 5
GAMG:  Solving for cellDisplacementz, Initial residual = 0.004152, Final residual = 3.1324e-08, No Iterations 5
PIMPLE: iteration 1
smoothSolver:  Solving for Ux, Initial residual = 2.0348e-05, Final residual = 1.0386e-10, No Iterations 1
smoothSolver:  Solving for Uy, Initial residual = 0.00011793, Final residual = 5.934e-10, No Iterations 1
smoothSolver:  Solving for Uz, Initial residual = 0.00011794, Final residual = 5.7941e-10, No Iterations 1
DICPCG:  Solving for p, Initial residual = 0.022842, Final residual = 0.0002241, No Iterations 12
DICPCG:  Solving for p, Initial residual = 0.0017573, Final residual = 1.2283e-05, No Iterations 32
time step continuity errors : sum local = 1.0413e-08, global = 2.721e-10, cumulative = -7.9238e-08
PIMPLE: iteration 2
smoothSolver:  Solving for Ux, Initial residual = 0.0013353, Final residual = 1.5295e-08, No Iterations 1
smoothSolver:  Solving for Uy, Initial residual = 0.0073919, Final residual = 5.0492e-08, No Iterations 1
smoothSolver:  Solving for Uz, Initial residual = 0.0074006, Final residual = 5.013e-08, No Iterations 1
DICPCG:  Solving for p, Initial residual = 0.004365, Final residual = 3.75e-05, No Iterations 7
DICPCG:  Solving for p, Initial residual = 0.00030896, Final residual = 2.2443e-06, No Iterations 28
time step continuity errors : sum local = 1.8968e-09, global = 1.554e-10, cumulative = -7.9083e-08
PIMPLE: iteration 3
smoothSolver:  Solving for Ux, Initial residual = 0.00084042, Final residual = 1.4021e-08, No Iterations 1
smoothSolver:  Solving for Uy, Initial residual = 0.005025, Final residual = 5.4968e-08, No Iterations 1
smoothSolver:  Solving for Uz, Initial residual = 0.0050297, Final residual = 5.4313e-08, No Iterations 1
DICPCG:  Solving for p, Initial residual = 0.017372, Final residual = 0.00015671, No Iterations 11
DICPCG:  Solving for p, Initial residual = 0.0012996, Final residual = 9.4807e-10, No Iterations 53
time step continuity errors : sum local = 1.1322e-12, global = 2.1955e-14, cumulative = -7.9083e-08
ExecutionTime = 9.09 s  ClockTime = 199 s

surfaceRegion PRESSURE_mantle write:
    none(mantle) of p = 0

surfaceRegion TRACTION_mantle write:
    none(mantle) of wallShearStress = (0 0 0)

I get past the save

Courant Number mean: 0.00049994 max: 0.0090898
0.0002

Time = 0.0003

Reading pointDisplacement

prev_runTime0.0002
GAMG:  Solving for cellDisplacementx, Initial residual = 0.21138, Final residual = 7.9954e-07, No Iterations 5
GAMG:  Solving for cellDisplacementy, Initial residual = 0.24532, Final residual = 5.4674e-07, No Iterations 6
GAMG:  Solving for cellDisplacementz, Initial residual = 0.24532, Final residual = 4.6413e-07, No Iterations 6
PIMPLE: iteration 1
smoothSolver:  Solving for Ux, Initial residual = 0.098223, Final residual = 5.1187e-07, No Iterations 1
smoothSolver:  Solving for Uy, Initial residual = 0.1503, Final residual = 7.8419e-07, No Iterations 1
smoothSolver:  Solving for Uz, Initial residual = 0.1503, Final residual = 7.7359e-07, No Iterations 1
DICPCG:  Solving for p, Initial residual = 0.069515, Final residual = 0.00038442, No Iterations 41
DICPCG:  Solving for p, Initial residual = 0.0082262, Final residual = 6.4118e-05, No Iterations 9
time step continuity errors : sum local = 4.863e-08, global = 5.7927e-09, cumulative = -7.329e-08
PIMPLE: iteration 2
smoothSolver:  Solving for Ux, Initial residual = 0.029448, Final residual = 7.7863e-07, No Iterations 1
smoothSolver:  Solving for Uy, Initial residual = 0.02281, Final residual = 1.3997e-07, No Iterations 1
smoothSolver:  Solving for Uz, Initial residual = 0.02281, Final residual = 1.3932e-07, No Iterations 1
DICPCG:  Solving for p, Initial residual = 0.030256, Final residual = 0.00017127, No Iterations 41
DICPCG:  Solving for p, Initial residual = 0.0038792, Final residual = 3.77e-05, No Iterations 8
time step continuity errors : sum local = 2.8158e-08, global = 2.8281e-09, cumulative = -7.0462e-08
PIMPLE: iteration 3
smoothSolver:  Solving for Ux, Initial residual = 0.024285, Final residual = 4.1318e-10, No Iterations 2
smoothSolver:  Solving for Uy, Initial residual = 0.004604, Final residual = 6.4787e-08, No Iterations 1
smoothSolver:  Solving for Uz, Initial residual = 0.0045984, Final residual = 6.2528e-08, No Iterations 1
DICPCG:  Solving for p, Initial residual = 0.021341, Final residual = 0.00015472, No Iterations 39
DICPCG:  Solving for p, Initial residual = 0.0017228, Final residual = 5.1828e-10, No Iterations 54
time step continuity errors : sum local = 5.4398e-13, global = 1.5366e-15, cumulative = -7.0462e-08
ExecutionTime = 9.82 s  ClockTime = 213 s

surfaceRegion PRESSURE_mantle write:
    none(mantle) of p = 0

surfaceRegion TRACTION_mantle write:
    none(mantle) of wallShearStress = (0 0 0)

I get past the save

Reading pointDisplacement

prev_runTime0.0002
GAMG:  Solving for cellDisplacementx, Initial residual = 0.1308, Final residual = 5.8846e-07, No Iterations 5
GAMG:  Solving for cellDisplacementy, Initial residual = 0.078864, Final residual = 1.6915e-07, No Iterations 6
GAMG:  Solving for cellDisplacementz, Initial residual = 0.078861, Final residual = 4.6005e-07, No Iterations 5
PIMPLE: iteration 1
smoothSolver:  Solving for Ux, Initial residual = 0.00026364, Final residual = 1.4498e-09, No Iterations 1
smoothSolver:  Solving for Uy, Initial residual = 0.0011292, Final residual = 2.0584e-09, No Iterations 1
smoothSolver:  Solving for Uz, Initial residual = 0.0011291, Final residual = 2.0064e-09, No Iterations 1
DICPCG:  Solving for p, Initial residual = 0.10864, Final residual = 0.0010729, No Iterations 40
DICPCG:  Solving for p, Initial residual = 0.010761, Final residual = 0.00010081, No Iterations 8
time step continuity errors : sum local = 1.0893e-07, global = -1.1418e-08, cumulative = -8.188e-08
PIMPLE: iteration 2
smoothSolver:  Solving for Ux, Initial residual = 0.038572, Final residual = 7.3731e-07, No Iterations 1
smoothSolver:  Solving for Uy, Initial residual = 0.034693, Final residual = 2.2614e-07, No Iterations 1
smoothSolver:  Solving for Uz, Initial residual = 0.034685, Final residual = 2.2342e-07, No Iterations 1
DICPCG:  Solving for p, Initial residual = 0.018165, Final residual = 0.00012928, No Iterations 40
DICPCG:  Solving for p, Initial residual = 0.0020113, Final residual = 1.6782e-05, No Iterations 7
time step continuity errors : sum local = 1.4421e-08, global = -1.7893e-09, cumulative = -8.367e-08
PIMPLE: iteration 3
smoothSolver:  Solving for Ux, Initial residual = 0.019973, Final residual = 1.3582e-10, No Iterations 2
smoothSolver:  Solving for Uy, Initial residual = 0.020678, Final residual = 3.0677e-11, No Iterations 2
smoothSolver:  Solving for Uz, Initial residual = 0.02068, Final residual = 3.0604e-11, No Iterations 2
DICPCG:  Solving for p, Initial residual = 0.025222, Final residual = 0.00014825, No Iterations 40
DICPCG:  Solving for p, Initial residual = 0.0021315, Final residual = 6.738e-10, No Iterations 54
time step continuity errors : sum local = 8.0276e-13, global = 5.8172e-15, cumulative = -8.367e-08
ExecutionTime = 10.5 s  ClockTime = 228 s

surfaceRegion PRESSURE_mantle write:
    none(mantle) of p = 0

surfaceRegion TRACTION_mantle write:
    none(mantle) of wallShearStress = (0 0 0)

I get past the save

Reading pointDisplacement

prev_runTime0.0002
GAMG:  Solving for cellDisplacementx, Initial residual = 0.0047217, Final residual = 4.618e-08, No Iterations 5
GAMG:  Solving for cellDisplacementy, Initial residual = 0.0036265, Final residual = 1.4085e-08, No Iterations 6
GAMG:  Solving for cellDisplacementz, Initial residual = 0.0036266, Final residual = 7.2964e-09, No Iterations 6
PIMPLE: iteration 1
smoothSolver:  Solving for Ux, Initial residual = 8.0966e-05, Final residual = 9.3082e-10, No Iterations 1
smoothSolver:  Solving for Uy, Initial residual = 0.00015393, Final residual = 8.4454e-10, No Iterations 1
smoothSolver:  Solving for Uz, Initial residual = 0.00015388, Final residual = 8.3804e-10, No Iterations 1
DICPCG:  Solving for p, Initial residual = 0.029126, Final residual = 0.00027196, No Iterations 28
DICPCG:  Solving for p, Initial residual = 0.0021186, Final residual = 1.8387e-05, No Iterations 32
time step continuity errors : sum local = 1.5617e-08, global = 6.0487e-10, cumulative = -8.3065e-08
PIMPLE: iteration 2
smoothSolver:  Solving for Ux, Initial residual = 0.00093559, Final residual = 9.9151e-09, No Iterations 1
smoothSolver:  Solving for Uy, Initial residual = 0.0061902, Final residual = 5.201e-08, No Iterations 1
smoothSolver:  Solving for Uz, Initial residual = 0.00619, Final residual = 5.1284e-08, No Iterations 1
DICPCG:  Solving for p, Initial residual = 0.0056617, Final residual = 4.0502e-05, No Iterations 7
DICPCG:  Solving for p, Initial residual = 0.0003758, Final residual = 3.0539e-06, No Iterations 35
time step continuity errors : sum local = 2.5845e-09, global = 1.712e-10, cumulative = -8.2893e-08
PIMPLE: iteration 3
smoothSolver:  Solving for Ux, Initial residual = 0.00059513, Final residual = 9.6989e-09, No Iterations 1
smoothSolver:  Solving for Uy, Initial residual = 0.0042568, Final residual = 5.7628e-08, No Iterations 1
smoothSolver:  Solving for Uz, Initial residual = 0.0042559, Final residual = 5.6676e-08, No Iterations 1
DICPCG:  Solving for p, Initial residual = 0.023017, Final residual = 0.00021891, No Iterations 15
DICPCG:  Solving for p, Initial residual = 0.0016945, Final residual = 8.9454e-10, No Iterations 53
time step continuity errors : sum local = 1.0666e-12, global = -1.709e-14, cumulative = -8.2893e-08
ExecutionTime = 11.22 s  ClockTime = 243 s

surfaceRegion PRESSURE_mantle write:
    none(mantle) of p = 0

surfaceRegion TRACTION_mantle write:
    none(mantle) of wallShearStress = (0 0 0)

I get past the save

Courant Number mean: 0.00073419 max: 0.012894
0.0003

Time = 0.0004

Reading pointDisplacement

prev_runTime0.0003
GAMG:  Solving for cellDisplacementx, Initial residual = 0.16973, Final residual = 1.376e-06, No Iterations 6
GAMG:  Solving for cellDisplacementy, Initial residual = 0.19319, Final residual = 9.9432e-07, No Iterations 6
GAMG:  Solving for cellDisplacementz, Initial residual = 0.19319, Final residual = 6.9935e-07, No Iterations 6
PIMPLE: iteration 1
smoothSolver:  Solving for Ux, Initial residual = 0.067806, Final residual = 4.6385e-07, No Iterations 1
smoothSolver:  Solving for Uy, Initial residual = 0.10419, Final residual = 6.9375e-07, No Iterations 1
smoothSolver:  Solving for Uz, Initial residual = 0.10419, Final residual = 6.862e-07, No Iterations 1
DICPCG:  Solving for p, Initial residual = 0.062247, Final residual = 0.00059686, No Iterations 40
DICPCG:  Solving for p, Initial residual = 0.0074287, Final residual = 7.0197e-05, No Iterations 9
time step continuity errors : sum local = 5.3787e-08, global = 6.1629e-09, cumulative = -7.6731e-08
PIMPLE: iteration 2
smoothSolver:  Solving for Ux, Initial residual = 0.020182, Final residual = 5.5775e-07, No Iterations 1
smoothSolver:  Solving for Uy, Initial residual = 0.017801, Final residual = 1.3636e-07, No Iterations 1
smoothSolver:  Solving for Uz, Initial residual = 0.017799, Final residual = 1.3579e-07, No Iterations 1
DICPCG:  Solving for p, Initial residual = 0.027348, Final residual = 0.00026925, No Iterations 40
DICPCG:  Solving for p, Initial residual = 0.0037089, Final residual = 3.0245e-05, No Iterations 9
time step continuity errors : sum local = 2.2842e-08, global = 2.6416e-09, cumulative = -7.4089e-08
PIMPLE: iteration 3
smoothSolver:  Solving for Ux, Initial residual = 0.016108, Final residual = 2.8964e-10, No Iterations 2
smoothSolver:  Solving for Uy, Initial residual = 0.0027519, Final residual = 5.2448e-08, No Iterations 1
smoothSolver:  Solving for Uz, Initial residual = 0.0027514, Final residual = 5.0713e-08, No Iterations 1
DICPCG:  Solving for p, Initial residual = 0.027185, Final residual = 0.00026549, No Iterations 38
DICPCG:  Solving for p, Initial residual = 0.002134, Final residual = 6.453e-10, No Iterations 54
time step continuity errors : sum local = 6.7954e-13, global = 6.0613e-15, cumulative = -7.4089e-08
ExecutionTime = 12.14 s  ClockTime = 259 s

surfaceRegion PRESSURE_mantle write:
    none(mantle) of p = 0

surfaceRegion TRACTION_mantle write:
    none(mantle) of wallShearStress = (0 0 0)

I get past the save

Reading pointDisplacement

prev_runTime0.0003
GAMG:  Solving for cellDisplacementx, Initial residual = 0.065732, Final residual = 4.3847e-07, No Iterations 6
GAMG:  Solving for cellDisplacementy, Initial residual = 0.042852, Final residual = 2.9702e-07, No Iterations 6
GAMG:  Solving for cellDisplacementz, Initial residual = 0.042853, Final residual = 1.9444e-07, No Iterations 7
PIMPLE: iteration 1
smoothSolver:  Solving for Ux, Initial residual = 0.00020421, Final residual = 1.3649e-09, No Iterations 1
smoothSolver:  Solving for Uy, Initial residual = 0.00075286, Final residual = 1.7045e-09, No Iterations 1
smoothSolver:  Solving for Uz, Initial residual = 0.00075287, Final residual = 1.6529e-09, No Iterations 1
DICPCG:  Solving for p, Initial residual = 0.10534, Final residual = 0.0010208, No Iterations 40
DICPCG:  Solving for p, Initial residual = 0.010396, Final residual = 9.1523e-05, No Iterations 8
time step continuity errors : sum local = 9.7705e-08, global = -1.2173e-08, cumulative = -8.6262e-08
PIMPLE: iteration 2
smoothSolver:  Solving for Ux, Initial residual = 0.028119, Final residual = 5.7257e-07, No Iterations 1
smoothSolver:  Solving for Uy, Initial residual = 0.024778, Final residual = 2.196e-07, No Iterations 1
smoothSolver:  Solving for Uz, Initial residual = 0.024773, Final residual = 2.178e-07, No Iterations 1
DICPCG:  Solving for p, Initial residual = 0.018085, Final residual = 0.00012004, No Iterations 40
DICPCG:  Solving for p, Initial residual = 0.0019479, Final residual = 1.9179e-05, No Iterations 6
time step continuity errors : sum local = 1.6284e-08, global = -2.7844e-09, cumulative = -8.9047e-08
PIMPLE: iteration 3
smoothSolver:  Solving for Ux, Initial residual = 0.014849, Final residual = 1.0974e-10, No Iterations 2
smoothSolver:  Solving for Uy, Initial residual = 0.015206, Final residual = 3.6765e-11, No Iterations 2
smoothSolver:  Solving for Uz, Initial residual = 0.015212, Final residual = 3.6762e-11, No Iterations 2
DICPCG:  Solving for p, Initial residual = 0.029539, Final residual = 0.00026656, No Iterations 39
DICPCG:  Solving for p, Initial residual = 0.0024242, Final residual = 7.814e-10, No Iterations 54
time step continuity errors : sum local = 9.2377e-13, global = -3.5322e-15, cumulative = -8.9047e-08
ExecutionTime = 12.98 s  ClockTime = 274 s

surfaceRegion PRESSURE_mantle write:
    none(mantle) of p = 0

surfaceRegion TRACTION_mantle write:
    none(mantle) of wallShearStress = (0 0 0)

I get past the save

Courant Number mean: 0.00097121 max: 0.016216
0.0004

Time = 0.0005

Reading pointDisplacement

prev_runTime0.0004
GAMG:  Solving for cellDisplacementx, Initial residual = 0.14123, Final residual = 5.1348e-07, No Iterations 5
GAMG:  Solving for cellDisplacementy, Initial residual = 0.15817, Final residual = 2.9817e-07, No Iterations 6
GAMG:  Solving for cellDisplacementz, Initial residual = 0.15817, Final residual = 1.1473e-06, No Iterations 5
PIMPLE: iteration 1
smoothSolver:  Solving for Ux, Initial residual = 0.051786, Final residual = 4.4125e-07, No Iterations 1
smoothSolver:  Solving for Uy, Initial residual = 0.077568, Final residual = 6.7584e-07, No Iterations 1
smoothSolver:  Solving for Uz, Initial residual = 0.07757, Final residual = 6.7083e-07, No Iterations 1
DICPCG:  Solving for p, Initial residual = 0.058759, Final residual = 0.00053435, No Iterations 40
DICPCG:  Solving for p, Initial residual = 0.0064647, Final residual = 6.1681e-05, No Iterations 9
time step continuity errors : sum local = 4.7553e-08, global = 6.4276e-09, cumulative = -8.2619e-08
PIMPLE: iteration 2
smoothSolver:  Solving for Ux, Initial residual = 0.015409, Final residual = 4.5191e-07, No Iterations 1
smoothSolver:  Solving for Uy, Initial residual = 0.01465, Final residual = 1.4185e-07, No Iterations 1
smoothSolver:  Solving for Uz, Initial residual = 0.014649, Final residual = 1.4136e-07, No Iterations 1
DICPCG:  Solving for p, Initial residual = 0.02452, Final residual = 0.00023615, No Iterations 40
DICPCG:  Solving for p, Initial residual = 0.0034051, Final residual = 2.7522e-05, No Iterations 9
time step continuity errors : sum local = 2.0925e-08, global = 2.7261e-09, cumulative = -7.9893e-08
PIMPLE: iteration 3
smoothSolver:  Solving for Ux, Initial residual = 0.011885, Final residual = 2.2717e-10, No Iterations 2
smoothSolver:  Solving for Uy, Initial residual = 0.0024262, Final residual = 4.8742e-08, No Iterations 1
smoothSolver:  Solving for Uz, Initial residual = 0.0024261, Final residual = 4.7316e-08, No Iterations 1
DICPCG:  Solving for p, Initial residual = 0.03172, Final residual = 0.00028129, No Iterations 38
DICPCG:  Solving for p, Initial residual = 0.002399, Final residual = 6.7855e-10, No Iterations 54
time step continuity errors : sum local = 7.1443e-13, global = 6.5187e-15, cumulative = -7.9893e-08
ExecutionTime = 13.88 s  ClockTime = 290 s

surfaceRegion PRESSURE_mantle write:
    none(mantle) of p = 0

surfaceRegion TRACTION_mantle write:
    none(mantle) of wallShearStress = (0 0 0)

I get past the save

Reading pointDisplacement

prev_runTime0.0004
GAMG:  Solving for cellDisplacementx, Initial residual = 0.032769, Final residual = 1.8023e-07, No Iterations 6
GAMG:  Solving for cellDisplacementy, Initial residual = 0.026365, Final residual = 2.0582e-07, No Iterations 6
GAMG:  Solving for cellDisplacementz, Initial residual = 0.02637, Final residual = 2.6056e-07, No Iterations 6
PIMPLE: iteration 1
smoothSolver:  Solving for Ux, Initial residual = 0.00014855, Final residual = 1.1637e-09, No Iterations 1
smoothSolver:  Solving for Uy, Initial residual = 0.00051766, Final residual = 1.7643e-09, No Iterations 1
smoothSolver:  Solving for Uz, Initial residual = 0.00051778, Final residual = 1.7276e-09, No Iterations 1
DICPCG:  Solving for p, Initial residual = 0.1018, Final residual = 0.00090318, No Iterations 40
DICPCG:  Solving for p, Initial residual = 0.010058, Final residual = 9.696e-05, No Iterations 7
time step continuity errors : sum local = 1.0139e-07, global = -1.8296e-08, cumulative = -9.8189e-08
PIMPLE: iteration 2
smoothSolver:  Solving for Ux, Initial residual = 0.021962, Final residual = 4.6946e-07, No Iterations 1
smoothSolver:  Solving for Uy, Initial residual = 0.018922, Final residual = 2.4389e-07, No Iterations 1
smoothSolver:  Solving for Uz, Initial residual = 0.018887, Final residual = 2.42e-07, No Iterations 1
DICPCG:  Solving for p, Initial residual = 0.017915, Final residual = 0.00015405, No Iterations 39
DICPCG:  Solving for p, Initial residual = 0.0018983, Final residual = 1.4459e-05, No Iterations 7
time step continuity errors : sum local = 1.2186e-08, global = -1.6302e-09, cumulative = -9.9819e-08
PIMPLE: iteration 3
smoothSolver:  Solving for Ux, Initial residual = 0.011707, Final residual = 9.1491e-11, No Iterations 2
smoothSolver:  Solving for Uy, Initial residual = 0.01184, Final residual = 5.0573e-11, No Iterations 2
smoothSolver:  Solving for Uz, Initial residual = 0.011834, Final residual = 5.0362e-11, No Iterations 2
DICPCG:  Solving for p, Initial residual = 0.033059, Final residual = 0.00026902, No Iterations 39
DICPCG:  Solving for p, Initial residual = 0.0025793, Final residual = 7.9165e-10, No Iterations 54
time step continuity errors : sum local = 9.2597e-13, global = 1.5175e-15, cumulative = -9.9819e-08
ExecutionTime = 14.77 s  ClockTime = 305 s

surfaceRegion PRESSURE_mantle write:
    none(mantle) of p = 0

surfaceRegion TRACTION_mantle write:
    none(mantle) of wallShearStress = (0 0 0)

I get past the save

Reading pointDisplacement

prev_runTime0.0004
GAMG:  Solving for cellDisplacementx, Initial residual = 0.00082789, Final residual = 4.3568e-09, No Iterations 9
GAMG:  Solving for cellDisplacementy, Initial residual = 0.0019156, Final residual = 1.1809e-08, No Iterations 8
GAMG:  Solving for cellDisplacementz, Initial residual = 0.00183, Final residual = 7.8899e-09, No Iterations 7
PIMPLE: iteration 1
smoothSolver:  Solving for Ux, Initial residual = 6.6464e-05, Final residual = 8.6256e-10, No Iterations 1
smoothSolver:  Solving for Uy, Initial residual = 0.00014856, Final residual = 1.1924e-09, No Iterations 1
smoothSolver:  Solving for Uz, Initial residual = 0.00014867, Final residual = 1.1775e-09, No Iterations 1
DICPCG:  Solving for p, Initial residual = 0.04005, Final residual = 0.000397, No Iterations 30
DICPCG:  Solving for p, Initial residual = 0.0029207, Final residual = 2.6125e-05, No Iterations 33
time step continuity errors : sum local = 2.1895e-08, global = 1.327e-10, cumulative = -9.9686e-08
PIMPLE: iteration 2
smoothSolver:  Solving for Ux, Initial residual = 0.00076747, Final residual = 9.9589e-09, No Iterations 1
smoothSolver:  Solving for Uy, Initial residual = 0.0057006, Final residual = 8.5925e-08, No Iterations 1
smoothSolver:  Solving for Uz, Initial residual = 0.0052954, Final residual = 6.6467e-08, No Iterations 1
DICPCG:  Solving for p, Initial residual = 0.0079169, Final residual = 6.1594e-05, No Iterations 8
DICPCG:  Solving for p, Initial residual = 0.00052242, Final residual = 4.7601e-06, No Iterations 35
time step continuity errors : sum local = 3.9672e-09, global = 2.1832e-10, cumulative = -9.9468e-08
PIMPLE: iteration 3
smoothSolver:  Solving for Ux, Initial residual = 0.00048245, Final residual = 1.0322e-08, No Iterations 1
smoothSolver:  Solving for Uy, Initial residual = 0.0038609, Final residual = 8.5652e-08, No Iterations 1
smoothSolver:  Solving for Uz, Initial residual = 0.0036528, Final residual = 7.1733e-08, No Iterations 1
DICPCG:  Solving for p, Initial residual = 0.031403, Final residual = 0.00029491, No Iterations 20
DICPCG:  Solving for p, Initial residual = 0.002265, Final residual = 7.1818e-10, No Iterations 54
time step continuity errors : sum local = 8.373e-13, global = -9.2872e-16, cumulative = -9.9468e-08
ExecutionTime = 15.55 s  ClockTime = 321 s

surfaceRegion PRESSURE_mantle write:
    none(mantle) of p = 0

surfaceRegion TRACTION_mantle write:
    none(mantle) of wallShearStress = (0 0 0)

I get past the save

Reading pointDisplacement

prev_runTime0.0004
GAMG:  Solving for cellDisplacementx, Initial residual = 0.00019709, Final residual = 1.143e-09, No Iterations 8
GAMG:  Solving for cellDisplacementy, Initial residual = 0.00046177, Final residual = 2.5403e-09, No Iterations 8
GAMG:  Solving for cellDisplacementz, Initial residual = 0.00031851, Final residual = 1.124e-09, No Iterations 7
PIMPLE: iteration 1
smoothSolver:  Solving for Ux, Initial residual = 2.337e-05, Final residual = 2.1369e-10, No Iterations 1
smoothSolver:  Solving for Uy, Initial residual = 0.00013196, Final residual = 9.6927e-10, No Iterations 1
smoothSolver:  Solving for Uz, Initial residual = 0.00013197, Final residual = 9.3953e-10, No Iterations 1
DICPCG:  Solving for p, Initial residual = 0.038087, Final residual = 0.00036041, No Iterations 28
DICPCG:  Solving for p, Initial residual = 0.0027322, Final residual = 2.7074e-05, No Iterations 32
time step continuity errors : sum local = 2.2692e-08, global = 1.1449e-09, cumulative = -9.8323e-08
PIMPLE: iteration 2
smoothSolver:  Solving for Ux, Initial residual = 0.00067025, Final residual = 8.4266e-09, No Iterations 1
smoothSolver:  Solving for Uy, Initial residual = 0.0053067, Final residual = 6.9248e-08, No Iterations 1
smoothSolver:  Solving for Uz, Initial residual = 0.0050124, Final residual = 5.5053e-08, No Iterations 1
DICPCG:  Solving for p, Initial residual = 0.0076458, Final residual = 5.7859e-05, No Iterations 7
DICPCG:  Solving for p, Initial residual = 0.00049103, Final residual = 4.743e-06, No Iterations 35
time step continuity errors : sum local = 3.9532e-09, global = 3.0133e-10, cumulative = -9.8021e-08
PIMPLE: iteration 3
smoothSolver:  Solving for Ux, Initial residual = 0.00042132, Final residual = 8.9412e-09, No Iterations 1
smoothSolver:  Solving for Uy, Initial residual = 0.0036351, Final residual = 7.276e-08, No Iterations 1
smoothSolver:  Solving for Uz, Initial residual = 0.0034816, Final residual = 6.1848e-08, No Iterations 1
DICPCG:  Solving for p, Initial residual = 0.031307, Final residual = 0.00028862, No Iterations 20
DICPCG:  Solving for p, Initial residual = 0.0022564, Final residual = 5.8202e-10, No Iterations 54
time step continuity errors : sum local = 6.7844e-13, global = 4.0356e-15, cumulative = -9.8021e-08
ExecutionTime = 16.12 s  ClockTime = 335 s

surfaceRegion PRESSURE_mantle write:
    none(mantle) of p = 0

surfaceRegion TRACTION_mantle write:
    none(mantle) of wallShearStress = (0 0 0)

I get past the save

Courant Number mean: 0.0011994 max: 0.019067
0.0005

Time = 0.0006

Reading pointDisplacement

prev_runTime0.0005
GAMG:  Solving for cellDisplacementx, Initial residual = 0.1164, Final residual = 5.6036e-07, No Iterations 5
GAMG:  Solving for cellDisplacementy, Initial residual = 0.1325, Final residual = 2.4051e-07, No Iterations 6
GAMG:  Solving for cellDisplacementz, Initial residual = 0.1325, Final residual = 1.0514e-06, No Iterations 5
PIMPLE: iteration 1
smoothSolver:  Solving for Ux, Initial residual = 0.042089, Final residual = 4.5588e-07, No Iterations 1
smoothSolver:  Solving for Uy, Initial residual = 0.0598, Final residual = 7.6096e-07, No Iterations 1
smoothSolver:  Solving for Uz, Initial residual = 0.059782, Final residual = 7.5616e-07, No Iterations 1
DICPCG:  Solving for p, Initial residual = 0.055996, Final residual = 0.00040168, No Iterations 40
DICPCG:  Solving for p, Initial residual = 0.0054943, Final residual = 4.9043e-05, No Iterations 10
time step continuity errors : sum local = 3.7945e-08, global = 6.3157e-09, cumulative = -9.1706e-08
PIMPLE: iteration 2
smoothSolver:  Solving for Ux, Initial residual = 0.012518, Final residual = 3.8437e-07, No Iterations 1
smoothSolver:  Solving for Uy, Initial residual = 0.012402, Final residual = 1.6194e-07, No Iterations 1
smoothSolver:  Solving for Uz, Initial residual = 0.012407, Final residual = 1.613e-07, No Iterations 1
DICPCG:  Solving for p, Initial residual = 0.02139, Final residual = 0.0001985, No Iterations 40
DICPCG:  Solving for p, Initial residual = 0.0030614, Final residual = 2.6051e-05, No Iterations 9
time step continuity errors : sum local = 1.9884e-08, global = 2.8571e-09, cumulative = -8.8849e-08
PIMPLE: iteration 3
smoothSolver:  Solving for Ux, Initial residual = 0.009363, Final residual = 1.8754e-10, No Iterations 2
smoothSolver:  Solving for Uy, Initial residual = 0.0023778, Final residual = 5.145e-08, No Iterations 1
smoothSolver:  Solving for Uz, Initial residual = 0.0023726, Final residual = 4.981e-08, No Iterations 1
DICPCG:  Solving for p, Initial residual = 0.035213, Final residual = 0.0003062, No Iterations 38
DICPCG:  Solving for p, Initial residual = 0.0025965, Final residual = 6.9818e-10, No Iterations 54
time step continuity errors : sum local = 7.3386e-13, global = 6.069e-15, cumulative = -8.8849e-08
ExecutionTime = 16.62 s  ClockTime = 347 s

surfaceRegion PRESSURE_mantle write:
    none(mantle) of p = 0

surfaceRegion TRACTION_mantle write:
    none(mantle) of wallShearStress = (0 0 0)

I get past the save

Reading pointDisplacement

prev_runTime0.0005
GAMG:  Solving for cellDisplacementx, Initial residual = 0.018202, Final residual = 1.3073e-07, No Iterations 6
GAMG:  Solving for cellDisplacementy, Initial residual = 0.016618, Final residual = 1.5633e-07, No Iterations 6
GAMG:  Solving for cellDisplacementz, Initial residual = 0.016587, Final residual = 8.3328e-08, No Iterations 6
PIMPLE: iteration 1
smoothSolver:  Solving for Ux, Initial residual = 0.00010017, Final residual = 8.8696e-10, No Iterations 1
smoothSolver:  Solving for Uy, Initial residual = 0.00035457, Final residual = 1.9419e-09, No Iterations 1
smoothSolver:  Solving for Uz, Initial residual = 0.00035479, Final residual = 1.9131e-09, No Iterations 1
DICPCG:  Solving for p, Initial residual = 0.094516, Final residual = 0.00068286, No Iterations 40
DICPCG:  Solving for p, Initial residual = 0.0094394, Final residual = 8.574e-05, No Iterations 7
time step continuity errors : sum local = 8.709e-08, global = -1.9879e-08, cumulative = -1.0873e-07
PIMPLE: iteration 2
smoothSolver:  Solving for Ux, Initial residual = 0.01792, Final residual = 3.8319e-07, No Iterations 1
smoothSolver:  Solving for Uy, Initial residual = 0.015042, Final residual = 2.8167e-07, No Iterations 1
smoothSolver:  Solving for Uz, Initial residual = 0.014809, Final residual = 2.7204e-07, No Iterations 1
DICPCG:  Solving for p, Initial residual = 0.017184, Final residual = 0.00011453, No Iterations 39
DICPCG:  Solving for p, Initial residual = 0.0017628, Final residual = 1.6545e-05, No Iterations 6
time step continuity errors : sum local = 1.3725e-08, global = -2.071e-09, cumulative = -1.108e-07
PIMPLE: iteration 3
smoothSolver:  Solving for Ux, Initial residual = 0.0096153, Final residual = 7.4655e-11, No Iterations 2
smoothSolver:  Solving for Uy, Initial residual = 0.0095467, Final residual = 6.8868e-11, No Iterations 2
smoothSolver:  Solving for Uz, Initial residual = 0.0094311, Final residual = 6.6886e-11, No Iterations 2
DICPCG:  Solving for p, Initial residual = 0.035663, Final residual = 0.00025342, No Iterations 39
DICPCG:  Solving for p, Initial residual = 0.0026943, Final residual = 7.6624e-10, No Iterations 54
time step continuity errors : sum local = 8.8018e-13, global = 1.9237e-17, cumulative = -1.108e-07
ExecutionTime = 17.32 s  ClockTime = 361 s

surfaceRegion PRESSURE_mantle write:
    none(mantle) of p = 0

surfaceRegion TRACTION_mantle write:
    none(mantle) of wallShearStress = (0 0 0)

I get past the save

Reading pointDisplacement

prev_runTime0.0005
GAMG:  Solving for cellDisplacementx, Initial residual = 0.0017116, Final residual = 1.3852e-08, No Iterations 5
GAMG:  Solving for cellDisplacementy, Initial residual = 0.001047, Final residual = 3.9054e-09, No Iterations 6
GAMG:  Solving for cellDisplacementz, Initial residual = 0.00091649, Final residual = 2.0844e-09, No Iterations 6
PIMPLE: iteration 1
smoothSolver:  Solving for Ux, Initial residual = 5.9919e-05, Final residual = 8.3598e-10, No Iterations 1
smoothSolver:  Solving for Uy, Initial residual = 0.00014504, Final residual = 1.3893e-09, No Iterations 1
smoothSolver:  Solving for Uz, Initial residual = 0.00014486, Final residual = 1.3573e-09, No Iterations 1
DICPCG:  Solving for p, Initial residual = 0.042782, Final residual = 0.00040636, No Iterations 32
DICPCG:  Solving for p, Initial residual = 0.0031929, Final residual = 2.6857e-05, No Iterations 34
time step continuity errors : sum local = 2.2288e-08, global = 1.5394e-09, cumulative = -1.0926e-07
PIMPLE: iteration 2
smoothSolver:  Solving for Ux, Initial residual = 0.00062807, Final residual = 1.0368e-08, No Iterations 1
smoothSolver:  Solving for Uy, Initial residual = 0.0055674, Final residual = 9.0178e-08, No Iterations 1
smoothSolver:  Solving for Uz, Initial residual = 0.004931, Final residual = 6.8653e-08, No Iterations 1
DICPCG:  Solving for p, Initial residual = 0.0086128, Final residual = 7.6906e-05, No Iterations 8
DICPCG:  Solving for p, Initial residual = 0.00057462, Final residual = 3.6189e-06, No Iterations 36
time step continuity errors : sum local = 2.9841e-09, global = 1.8892e-10, cumulative = -1.0907e-07
PIMPLE: iteration 3
smoothSolver:  Solving for Ux, Initial residual = 0.00039271, Final residual = 1.0441e-08, No Iterations 1
smoothSolver:  Solving for Uy, Initial residual = 0.0037647, Final residual = 9.3228e-08, No Iterations 1
smoothSolver:  Solving for Uz, Initial residual = 0.0034035, Final residual = 7.4952e-08, No Iterations 1
DICPCG:  Solving for p, Initial residual = 0.034317, Final residual = 0.0003228, No Iterations 26
DICPCG:  Solving for p, Initial residual = 0.002417, Final residual = 5.4074e-10, No Iterations 54
time step continuity errors : sum local = 6.2102e-13, global = 1.2064e-15, cumulative = -1.0907e-07
ExecutionTime = 18.15 s  ClockTime = 378 s

surfaceRegion PRESSURE_mantle write:
    none(mantle) of p = 0

surfaceRegion TRACTION_mantle write:
    none(mantle) of wallShearStress = (0 0 0)

I get past the save

Reading pointDisplacement

prev_runTime0.0005
GAMG:  Solving for cellDisplacementx, Initial residual = 0.00012777, Final residual = 1.0229e-09, No Iterations 5
GAMG:  Solving for cellDisplacementy, Initial residual = 0.00040267, Final residual = 9.777e-10, No Iterations 6
GAMG:  Solving for cellDisplacementz, Initial residual = 0.00026938, Final residual = 9.986e-10, No Iterations 6
PIMPLE: iteration 1
smoothSolver:  Solving for Ux, Initial residual = 2.2605e-05, Final residual = 2.4509e-10, No Iterations 1
smoothSolver:  Solving for Uy, Initial residual = 0.00013436, Final residual = 1.1858e-09, No Iterations 1
smoothSolver:  Solving for Uz, Initial residual = 0.00013382, Final residual = 1.1362e-09, No Iterations 1
DICPCG:  Solving for p, Initial residual = 0.04217, Final residual = 0.00040769, No Iterations 28
DICPCG:  Solving for p, Initial residual = 0.0030598, Final residual = 2.454e-05, No Iterations 34
time step continuity errors : sum local = 2.0351e-08, global = 4.2782e-10, cumulative = -1.0864e-07
PIMPLE: iteration 2
smoothSolver:  Solving for Ux, Initial residual = 0.00059568, Final residual = 9.2157e-09, No Iterations 1
smoothSolver:  Solving for Uy, Initial residual = 0.0052054, Final residual = 8.1745e-08, No Iterations 1
smoothSolver:  Solving for Uz, Initial residual = 0.0047673, Final residual = 6.6087e-08, No Iterations 1
DICPCG:  Solving for p, Initial residual = 0.0085312, Final residual = 6.9444e-05, No Iterations 7
DICPCG:  Solving for p, Initial residual = 0.00054986, Final residual = 4.3341e-06, No Iterations 36
time step continuity errors : sum local = 3.5712e-09, global = 3.1308e-10, cumulative = -1.0833e-07
PIMPLE: iteration 3
smoothSolver:  Solving for Ux, Initial residual = 0.0003718, Final residual = 9.5866e-09, No Iterations 1
smoothSolver:  Solving for Uy, Initial residual = 0.0035617, Final residual = 8.6258e-08, No Iterations 1
smoothSolver:  Solving for Uz, Initial residual = 0.0033114, Final residual = 7.2896e-08, No Iterations 1
DICPCG:  Solving for p, Initial residual = 0.034288, Final residual = 0.00033174, No Iterations 24
DICPCG:  Solving for p, Initial residual = 0.002443, Final residual = 6.0124e-10, No Iterations 54
time step continuity errors : sum local = 6.9009e-13, global = -3.2266e-16, cumulative = -1.0833e-07
ExecutionTime = 18.88 s  ClockTime = 393 s

surfaceRegion PRESSURE_mantle write:
    none(mantle) of p = 0

surfaceRegion TRACTION_mantle write:
    none(mantle) of wallShearStress = (0 0 0)

I get past the save

Courant Number mean: 0.001438 max: 0.021476
0.0006

Time = 0.0007

Reading pointDisplacement

prev_runTime0.0006
GAMG:  Solving for cellDisplacementx, Initial residual = 0.094256, Final residual = 5.0222e-07, No Iterations 5
GAMG:  Solving for cellDisplacementy, Initial residual = 0.11342, Final residual = 3.0286e-07, No Iterations 6
GAMG:  Solving for cellDisplacementz, Initial residual = 0.11342, Final residual = 9.1911e-07, No Iterations 5
PIMPLE: iteration 1
smoothSolver:  Solving for Ux, Initial residual = 0.035556, Final residual = 4.7129e-07, No Iterations 1
smoothSolver:  Solving for Uy, Initial residual = 0.047651, Final residual = 8.5973e-07, No Iterations 1
smoothSolver:  Solving for Uz, Initial residual = 0.047426, Final residual = 8.4768e-07, No Iterations 1
DICPCG:  Solving for p, Initial residual = 0.056166, Final residual = 0.00053004, No Iterations 39
DICPCG:  Solving for p, Initial residual = 0.0048257, Final residual = 4.5313e-05, No Iterations 11
time step continuity errors : sum local = 3.5094e-08, global = 6.3516e-09, cumulative = -1.0198e-07
PIMPLE: iteration 2
smoothSolver:  Solving for Ux, Initial residual = 0.01058, Final residual = 3.3902e-07, No Iterations 1
smoothSolver:  Solving for Uy, Initial residual = 0.010754, Final residual = 1.8572e-07, No Iterations 1
smoothSolver:  Solving for Uz, Initial residual = 0.010741, Final residual = 1.8419e-07, No Iterations 1
DICPCG:  Solving for p, Initial residual = 0.019354, Final residual = 0.00012959, No Iterations 40
DICPCG:  Solving for p, Initial residual = 0.0026917, Final residual = 2.4366e-05, No Iterations 9
time step continuity errors : sum local = 1.862e-08, global = 2.9385e-09, cumulative = -9.9039e-08
PIMPLE: iteration 3
smoothSolver:  Solving for Ux, Initial residual = 0.0076653, Final residual = 1.5761e-10, No Iterations 2
smoothSolver:  Solving for Uy, Initial residual = 0.0024355, Final residual = 5.9781e-08, No Iterations 1
smoothSolver:  Solving for Uz, Initial residual = 0.0024141, Final residual = 5.7186e-08, No Iterations 1
DICPCG:  Solving for p, Initial residual = 0.037781, Final residual = 0.00031283, No Iterations 38
DICPCG:  Solving for p, Initial residual = 0.0027208, Final residual = 7.136e-10, No Iterations 54
time step continuity errors : sum local = 7.4779e-13, global = 5.2834e-15, cumulative = -9.9039e-08
ExecutionTime = 19.68 s  ClockTime = 407 s

surfaceRegion PRESSURE_mantle write:
    none(mantle) of p = 0

surfaceRegion TRACTION_mantle write:
    none(mantle) of wallShearStress = (0 0 0)

I get past the save

Reading pointDisplacement

prev_runTime0.0006
GAMG:  Solving for cellDisplacementx, Initial residual = 0.014681, Final residual = 7.7358e-08, No Iterations 5
GAMG:  Solving for cellDisplacementy, Initial residual = 0.011971, Final residual = 3.0358e-08, No Iterations 6
GAMG:  Solving for cellDisplacementz, Initial residual = 0.011929, Final residual = 9.4919e-08, No Iterations 5
PIMPLE: iteration 1
smoothSolver:  Solving for Ux, Initial residual = 6.0589e-05, Final residual = 5.4167e-10, No Iterations 1
smoothSolver:  Solving for Uy, Initial residual = 0.00027436, Final residual = 2.3236e-09, No Iterations 1
smoothSolver:  Solving for Uz, Initial residual = 0.00027435, Final residual = 2.298e-09, No Iterations 1
DICPCG:  Solving for p, Initial residual = 0.088195, Final residual = 0.00075291, No Iterations 39
DICPCG:  Solving for p, Initial residual = 0.0089095, Final residual = 8.005e-05, No Iterations 7
time step continuity errors : sum local = 7.9001e-08, global = -2.1707e-08, cumulative = -1.2075e-07
PIMPLE: iteration 2
smoothSolver:  Solving for Ux, Initial residual = 0.015163, Final residual = 3.1925e-07, No Iterations 1
smoothSolver:  Solving for Uy, Initial residual = 0.012027, Final residual = 2.8823e-07, No Iterations 1
smoothSolver:  Solving for Uz, Initial residual = 0.01184, Final residual = 2.8177e-07, No Iterations 1
DICPCG:  Solving for p, Initial residual = 0.016572, Final residual = 0.00015447, No Iterations 38
DICPCG:  Solving for p, Initial residual = 0.0016671, Final residual = 1.2927e-05, No Iterations 7
time step continuity errors : sum local = 1.0571e-08, global = -2.0076e-09, cumulative = -1.2275e-07
PIMPLE: iteration 3
smoothSolver:  Solving for Ux, Initial residual = 0.0081665, Final residual = 6.1281e-11, No Iterations 2
smoothSolver:  Solving for Uy, Initial residual = 0.0077539, Final residual = 7.8662e-11, No Iterations 2
smoothSolver:  Solving for Uz, Initial residual = 0.007656, Final residual = 7.7372e-11, No Iterations 2
DICPCG:  Solving for p, Initial residual = 0.037591, Final residual = 0.0002269, No Iterations 39
DICPCG:  Solving for p, Initial residual = 0.0027533, Final residual = 7.3367e-10, No Iterations 54
time step continuity errors : sum local = 8.2982e-13, global = -1.6067e-15, cumulative = -1.2275e-07
ExecutionTime = 20.47 s  ClockTime = 423 s

surfaceRegion PRESSURE_mantle write:
    none(mantle) of p = 0

surfaceRegion TRACTION_mantle write:
    none(mantle) of wallShearStress = (0 0 0)

I get past the save

Reading pointDisplacement

prev_runTime0.0006
GAMG:  Solving for cellDisplacementx, Initial residual = 0.00061207, Final residual = 2.7712e-09, No Iterations 8
GAMG:  Solving for cellDisplacementy, Initial residual = 0.00056497, Final residual = 2.5602e-09, No Iterations 8
GAMG:  Solving for cellDisplacementz, Initial residual = 0.00052073, Final residual = 3.0402e-09, No Iterations 7
PIMPLE: iteration 1
smoothSolver:  Solving for Ux, Initial residual = 5.4691e-05, Final residual = 7.9841e-10, No Iterations 1
smoothSolver:  Solving for Uy, Initial residual = 0.00014063, Final residual = 1.5212e-09, No Iterations 1
smoothSolver:  Solving for Uz, Initial residual = 0.00014046, Final residual = 1.4929e-09, No Iterations 1
DICPCG:  Solving for p, Initial residual = 0.04459, Final residual = 0.00044167, No Iterations 35
DICPCG:  Solving for p, Initial residual = 0.0030656, Final residual = 2.952e-05, No Iterations 34
time step continuity errors : sum local = 2.418e-08, global = 3.5062e-09, cumulative = -1.1925e-07
PIMPLE: iteration 2
smoothSolver:  Solving for Ux, Initial residual = 0.00052569, Final residual = 9.3311e-09, No Iterations 1
smoothSolver:  Solving for Uy, Initial residual = 0.0045013, Final residual = 7.41e-08, No Iterations 1
smoothSolver:  Solving for Uz, Initial residual = 0.0042887, Final residual = 6.7605e-08, No Iterations 1
DICPCG:  Solving for p, Initial residual = 0.0091235, Final residual = 8.1794e-05, No Iterations 8
DICPCG:  Solving for p, Initial residual = 0.00057354, Final residual = 3.4158e-06, No Iterations 36
time step continuity errors : sum local = 2.7792e-09, global = 1.513e-10, cumulative = -1.191e-07
PIMPLE: iteration 3
smoothSolver:  Solving for Ux, Initial residual = 0.00032924, Final residual = 9.8484e-09, No Iterations 1
smoothSolver:  Solving for Uy, Initial residual = 0.0031316, Final residual = 8.1538e-08, No Iterations 1
smoothSolver:  Solving for Uz, Initial residual = 0.0030102, Final residual = 7.5762e-08, No Iterations 1
DICPCG:  Solving for p, Initial residual = 0.036499, Final residual = 0.00034596, No Iterations 26
DICPCG:  Solving for p, Initial residual = 0.0025332, Final residual = 5.5839e-10, No Iterations 54
time step continuity errors : sum local = 6.3137e-13, global = -2.255e-16, cumulative = -1.191e-07
ExecutionTime = 21.29 s  ClockTime = 439 s

surfaceRegion PRESSURE_mantle write:
    none(mantle) of p = 0

surfaceRegion TRACTION_mantle write:
    none(mantle) of wallShearStress = (0 0 0)

I get past the save

Courant Number mean: 0.0016803 max: 0.023449
0.0007

Time = 0.0008

[...]
GAMG:  Solving for cellDisplacementy, Initial residual = 0.0051718, Final residual = 1.2548e-08, No Iterations 6
GAMG:  Solving for cellDisplacementz, Initial residual = 0.0051854, Final residual = 1.0281e-08, No Iterations 6
PIMPLE: iteration 1
smoothSolver:  Solving for Ux, Initial residual = 7.2033e-05, Final residual = 4.8222e-08, No Iterations 1
smoothSolver:  Solving for Uy, Initial residual = 0.00019375, Final residual = 2.1436e-07, No Iterations 1
smoothSolver:  Solving for Uz, Initial residual = 0.00019378, Final residual = 2.1445e-07, No Iterations 1
DICPCG:  Solving for p, Initial residual = 0.63499, Final residual = 0.0056464, No Iterations 37
DICPCG:  Solving for p, Initial residual = 0.030054, Final residual = 0.00023164, No Iterations 8
time step continuity errors : sum local = 1.1024e-07, global = 1.7578e-09, cumulative = -6.6638e-07
PIMPLE: iteration 2
smoothSolver:  Solving for Ux, Initial residual = 0.0042192, Final residual = 2.5084e-06, No Iterations 1
smoothSolver:  Solving for Uy, Initial residual = 0.01065, Final residual = 7.6739e-06, No Iterations 1
smoothSolver:  Solving for Uz, Initial residual = 0.010722, Final residual = 7.7168e-06, No Iterations 1
DICPCG:  Solving for p, Initial residual = 0.054516, Final residual = 0.00037626, No Iterations 37
DICPCG:  Solving for p, Initial residual = 0.0051737, Final residual = 5.1377e-05, No Iterations 5
time step continuity errors : sum local = 2.0877e-08, global = -4.7774e-10, cumulative = -6.6686e-07
PIMPLE: iteration 3
smoothSolver:  Solving for Ux, Initial residual = 0.0023361, Final residual = 1.0547e-09, No Iterations 2
smoothSolver:  Solving for Uy, Initial residual = 0.0068691, Final residual = 4.345e-09, No Iterations 2
smoothSolver:  Solving for Uz, Initial residual = 0.0069194, Final residual = 4.3743e-09, No Iterations 2
DICPCG:  Solving for p, Initial residual = 0.12248, Final residual = 0.00071936, No Iterations 35
DICPCG:  Solving for p, Initial residual = 0.0098591, Final residual = 8.1631e-10, No Iterations 57
time step continuity errors : sum local = 3.4941e-13, global = 6.7472e-15, cumulative = -6.6686e-07
ExecutionTime = 322.88 s  ClockTime = 6237 s

surfaceRegion PRESSURE_mantle write:
    none(mantle) of p = 0

surfaceRegion TRACTION_mantle write:
    none(mantle) of wallShearStress = (0 0 0)

I get past the save

Reading pointDisplacement

prev_runTime0.0098
GAMG:  Solving for cellDisplacementx, Initial residual = 0.0001076, Final residual = 5.5377e-10, No Iterations 6
GAMG:  Solving for cellDisplacementy, Initial residual = 0.00017383, Final residual = 7.4267e-10, No Iterations 6
GAMG:  Solving for cellDisplacementz, Initial residual = 0.00017664, Final residual = 3.6848e-10, No Iterations 6
PIMPLE: iteration 1
smoothSolver:  Solving for Ux, Initial residual = 2.6447e-05, Final residual = 1.7362e-08, No Iterations 1
smoothSolver:  Solving for Uy, Initial residual = 0.00023002, Final residual = 2.1206e-07, No Iterations 1
smoothSolver:  Solving for Uz, Initial residual = 0.00023042, Final residual = 2.1227e-07, No Iterations 1
DICPCG:  Solving for p, Initial residual = 0.14401, Final residual = 0.0013133, No Iterations 24
DICPCG:  Solving for p, Initial residual = 0.0080838, Final residual = 7.1801e-05, No Iterations 34
time step continuity errors : sum local = 2.7729e-08, global = -2.0451e-09, cumulative = -6.689e-07
PIMPLE: iteration 2
smoothSolver:  Solving for Ux, Initial residual = 0.00011783, Final residual = 3.3881e-08, No Iterations 1
smoothSolver:  Solving for Uy, Initial residual = 0.0030181, Final residual = 2.8618e-06, No Iterations 1
smoothSolver:  Solving for Uz, Initial residual = 0.002971, Final residual = 2.8173e-06, No Iterations 1
DICPCG:  Solving for p, Initial residual = 0.028495, Final residual = 0.00021402, No Iterations 6
DICPCG:  Solving for p, Initial residual = 0.0015786, Final residual = 1.2711e-05, No Iterations 34
time step continuity errors : sum local = 4.8205e-09, global = 1.3569e-10, cumulative = -6.6877e-07
PIMPLE: iteration 3
smoothSolver:  Solving for Ux, Initial residual = 7.7664e-05, Final residual = 2.5613e-08, No Iterations 1
smoothSolver:  Solving for Uy, Initial residual = 0.0021731, Final residual = 1.6806e-09, No Iterations 2
smoothSolver:  Solving for Uz, Initial residual = 0.0021454, Final residual = 1.6554e-09, No Iterations 2
DICPCG:  Solving for p, Initial residual = 0.12178, Final residual = 0.0011699, No Iterations 16
DICPCG:  Solving for p, Initial residual = 0.0086322, Final residual = 9.5916e-10, No Iterations 55
time step continuity errors : sum local = 4.1599e-13, global = 4.5431e-15, cumulative = -6.6877e-07
ExecutionTime = 323.67 s  ClockTime = 6252 s

surfaceRegion PRESSURE_mantle write:
    none(mantle) of p = 0

surfaceRegion TRACTION_mantle write:
    none(mantle) of wallShearStress = (0 0 0)

I get past the save

Reading pointDisplacement

prev_runTime0.0098
GAMG:  Solving for cellDisplacementx, Initial residual = 3.6763e-06, Final residual = 9.6388e-10, No Iterations 4
GAMG:  Solving for cellDisplacementy, Initial residual = 1.9483e-05, Final residual = 3.7549e-10, No Iterations 5
GAMG:  Solving for cellDisplacementz, Initial residual = 2.0073e-05, Final residual = 3.6453e-10, No Iterations 5
PIMPLE: iteration 1
smoothSolver:  Solving for Ux, Initial residual = 5.9079e-06, Final residual = 2.0434e-09, No Iterations 1
smoothSolver:  Solving for Uy, Initial residual = 0.00020772, Final residual = 2.0318e-07, No Iterations 1
smoothSolver:  Solving for Uz, Initial residual = 0.00020752, Final residual = 2.0297e-07, No Iterations 1
DICPCG:  Solving for p, Initial residual = 0.14386, Final residual = 0.0013785, No Iterations 18
DICPCG:  Solving for p, Initial residual = 0.0082213, Final residual = 7.6052e-05, No Iterations 28
time step continuity errors : sum local = 2.9229e-08, global = 4.5205e-10, cumulative = -6.6831e-07
PIMPLE: iteration 2
smoothSolver:  Solving for Ux, Initial residual = 0.00011815, Final residual = 3.4292e-08, No Iterations 1
smoothSolver:  Solving for Uy, Initial residual = 0.0030005, Final residual = 2.8571e-06, No Iterations 1
smoothSolver:  Solving for Uz, Initial residual = 0.0029989, Final residual = 2.852e-06, No Iterations 1
DICPCG:  Solving for p, Initial residual = 0.0285, Final residual = 0.00023669, No Iterations 6
DICPCG:  Solving for p, Initial residual = 0.0016006, Final residual = 1.4629e-05, No Iterations 34
time step continuity errors : sum local = 5.5457e-09, global = 2.6446e-10, cumulative = -6.6805e-07
PIMPLE: iteration 3
smoothSolver:  Solving for Ux, Initial residual = 7.7726e-05, Final residual = 2.9064e-08, No Iterations 1
smoothSolver:  Solving for Uy, Initial residual = 0.002163, Final residual = 1.6767e-09, No Iterations 2
smoothSolver:  Solving for Uz, Initial residual = 0.0021609, Final residual = 1.6702e-09, No Iterations 2
DICPCG:  Solving for p, Initial residual = 0.12192, Final residual = 0.00116, No Iterations 16
DICPCG:  Solving for p, Initial residual = 0.0086387, Final residual = 6.3195e-10, No Iterations 56
time step continuity errors : sum local = 2.7379e-13, global = -3.0424e-15, cumulative = -6.6805e-07
ExecutionTime = 324.59 s  ClockTime = 6270 s

surfaceRegion PRESSURE_mantle write:
    none(mantle) of p = 0

surfaceRegion TRACTION_mantle write:
    none(mantle) of wallShearStress = (0 0 0)

I get past the save

Courant Number mean: 0.010351 max: 0.027928
0.0099

Time = 0.0100

Reading pointDisplacement

prev_runTime0.0099
GAMG:  Solving for cellDisplacementx, Initial residual = 0.064044, Final residual = 1.8399e-07, No Iterations 4
GAMG:  Solving for cellDisplacementy, Initial residual = 0.040831, Final residual = 1.1028e-07, No Iterations 6
GAMG:  Solving for cellDisplacementz, Initial residual = 0.040831, Final residual = 1.0634e-07, No Iterations 6
PIMPLE: iteration 1
smoothSolver:  Solving for Ux, Initial residual = 0.012931, Final residual = 7.5776e-06, No Iterations 1
smoothSolver:  Solving for Uy, Initial residual = 0.035884, Final residual = 2.4079e-05, No Iterations 1
smoothSolver:  Solving for Uz, Initial residual = 0.035884, Final residual = 2.4058e-05, No Iterations 1
DICPCG:  Solving for p, Initial residual = 0.25109, Final residual = 0.0023355, No Iterations 35
DICPCG:  Solving for p, Initial residual = 0.04002, Final residual = 0.00034676, No Iterations 10
time step continuity errors : sum local = 5.9475e-08, global = 4.9426e-09, cumulative = -6.6311e-07
PIMPLE: iteration 2
smoothSolver:  Solving for Ux, Initial residual = 0.0010909, Final residual = 5.2925e-07, No Iterations 1
smoothSolver:  Solving for Uy, Initial residual = 0.0076073, Final residual = 6.2853e-06, No Iterations 1
smoothSolver:  Solving for Uz, Initial residual = 0.0076053, Final residual = 6.2857e-06, No Iterations 1
DICPCG:  Solving for p, Initial residual = 0.13224, Final residual = 0.00092589, No Iterations 38
DICPCG:  Solving for p, Initial residual = 0.023671, Final residual = 0.00021874, No Iterations 8
time step continuity errors : sum local = 3.0426e-08, global = -8.8665e-10, cumulative = -6.6399e-07
PIMPLE: iteration 3
smoothSolver:  Solving for Ux, Initial residual = 0.001114, Final residual = 5.5144e-10, No Iterations 2
smoothSolver:  Solving for Uy, Initial residual = 0.0020279, Final residual = 1.3305e-09, No Iterations 2
smoothSolver:  Solving for Uz, Initial residual = 0.002033, Final residual = 1.3292e-09, No Iterations 2
DICPCG:  Solving for p, Initial residual = 0.34262, Final residual = 0.0030013, No Iterations 21
DICPCG:  Solving for p, Initial residual = 0.034825, Final residual = 8.056e-10, No Iterations 59
time step continuity errors : sum local = 8.5764e-14, global = 2.1323e-15, cumulative = -6.6399e-07
ExecutionTime = 325.45 s  ClockTime = 6284 s

surfaceRegion PRESSURE_mantle write:
    none(mantle) of p = 0

surfaceRegion TRACTION_mantle write:
    none(mantle) of wallShearStress = (0 0 0)

I get past the save

Reading pointDisplacement

prev_runTime0.0099
GAMG:  Solving for cellDisplacementx, Initial residual = 0.0058103, Final residual = 1.9634e-08, No Iterations 5
GAMG:  Solving for cellDisplacementy, Initial residual = 0.0053831, Final residual = 1.5069e-08, No Iterations 6
GAMG:  Solving for cellDisplacementz, Initial residual = 0.0053767, Final residual = 1.0632e-08, No Iterations 6
PIMPLE: iteration 1
smoothSolver:  Solving for Ux, Initial residual = 7.1765e-05, Final residual = 4.1779e-08, No Iterations 1
smoothSolver:  Solving for Uy, Initial residual = 0.00019847, Final residual = 1.9965e-07, No Iterations 1
smoothSolver:  Solving for Uz, Initial residual = 0.00019859, Final residual = 1.9973e-07, No Iterations 1
DICPCG:  Solving for p, Initial residual = 0.63691, Final residual = 0.0047957, No Iterations 35
DICPCG:  Solving for p, Initial residual = 0.032201, Final residual = 0.00018971, No Iterations 8
time step continuity errors : sum local = 8.3776e-08, global = 3.2029e-09, cumulative = -6.6079e-07
PIMPLE: iteration 2
smoothSolver:  Solving for Ux, Initial residual = 0.0040891, Final residual = 2.5691e-06, No Iterations 1
smoothSolver:  Solving for Uy, Initial residual = 0.010328, Final residual = 6.9151e-06, No Iterations 1
smoothSolver:  Solving for Uz, Initial residual = 0.010302, Final residual = 6.9385e-06, No Iterations 1
DICPCG:  Solving for p, Initial residual = 0.058537, Final residual = 0.00049751, No Iterations 25
DICPCG:  Solving for p, Initial residual = 0.0055739, Final residual = 4.2142e-05, No Iterations 25
time step continuity errors : sum local = 1.5914e-08, global = 6.7176e-10, cumulative = -6.6012e-07
PIMPLE: iteration 3
smoothSolver:  Solving for Ux, Initial residual = 0.0022623, Final residual = 1.0846e-09, No Iterations 2
smoothSolver:  Solving for Uy, Initial residual = 0.0066717, Final residual = 3.976e-09, No Iterations 2
smoothSolver:  Solving for Uz, Initial residual = 0.0066609, Final residual = 3.9847e-09, No Iterations 2
DICPCG:  Solving for p, Initial residual = 0.13512, Final residual = 0.001232, No Iterations 23
DICPCG:  Solving for p, Initial residual = 0.010972, Final residual = 7.1841e-10, No Iterations 56
time step continuity errors : sum local = 2.8634e-13, global = 1.2153e-15, cumulative = -6.6012e-07
ExecutionTime = 326.28 s  ClockTime = 6300 s

surfaceRegion PRESSURE_mantle write:
    none(mantle) of p = 0

surfaceRegion TRACTION_mantle write:
    none(mantle) of wallShearStress = (0 0 0)

I get past the save

Reading pointDisplacement

prev_runTime0.0099
GAMG:  Solving for cellDisplacementx, Initial residual = 0.00011039, Final residual = 6.5666e-10, No Iterations 6
GAMG:  Solving for cellDisplacementy, Initial residual = 0.00018594, Final residual = 7.6273e-10, No Iterations 6
GAMG:  Solving for cellDisplacementz, Initial residual = 0.00018823, Final residual = 3.7755e-10, No Iterations 6
PIMPLE: iteration 1
smoothSolver:  Solving for Ux, Initial residual = 2.6224e-05, Final residual = 1.7809e-08, No Iterations 1
smoothSolver:  Solving for Uy, Initial residual = 0.00023454, Final residual = 1.9407e-07, No Iterations 1
smoothSolver:  Solving for Uz, Initial residual = 0.00023446, Final residual = 1.9425e-07, No Iterations 1
DICPCG:  Solving for p, Initial residual = 0.15869, Final residual = 0.0015688, No Iterations 23
DICPCG:  Solving for p, Initial residual = 0.0088117, Final residual = 7.3935e-05, No Iterations 33
time step continuity errors : sum local = 2.7035e-08, global = -1.3463e-09, cumulative = -6.6146e-07
PIMPLE: iteration 2
smoothSolver:  Solving for Ux, Initial residual = 0.00012502, Final residual = 2.9482e-08, No Iterations 1
smoothSolver:  Solving for Uy, Initial residual = 0.00298, Final residual = 2.7426e-06, No Iterations 1
smoothSolver:  Solving for Uz, Initial residual = 0.0029938, Final residual = 2.7192e-06, No Iterations 1
DICPCG:  Solving for p, Initial residual = 0.030968, Final residual = 0.00024846, No Iterations 6
DICPCG:  Solving for p, Initial residual = 0.0017172, Final residual = 1.6857e-05, No Iterations 32
time step continuity errors : sum local = 6.0254e-09, global = 3.2174e-11, cumulative = -6.6143e-07
PIMPLE: iteration 3
smoothSolver:  Solving for Ux, Initial residual = 8.1778e-05, Final residual = 2.9053e-08, No Iterations 1
smoothSolver:  Solving for Uy, Initial residual = 0.0021491, Final residual = 1.6232e-09, No Iterations 2
smoothSolver:  Solving for Uz, Initial residual = 0.002156, Final residual = 1.6117e-09, No Iterations 2
DICPCG:  Solving for p, Initial residual = 0.13326, Final residual = 0.0012631, No Iterations 16
DICPCG:  Solving for p, Initial residual = 0.0095578, Final residual = 6.9769e-10, No Iterations 56
time step continuity errors : sum local = 2.7903e-13, global = 7.1406e-16, cumulative = -6.6143e-07
ExecutionTime = 327.04 s  ClockTime = 6315 s

surfaceRegion PRESSURE_mantle write:
    none(mantle) of p = 0

surfaceRegion TRACTION_mantle write:
    none(mantle) of wallShearStress = (0 0 0)

I get past the save

Reading pointDisplacement

prev_runTime0.0099
GAMG:  Solving for cellDisplacementx, Initial residual = 5.0867e-06, Final residual = 1.8442e-10, No Iterations 5
GAMG:  Solving for cellDisplacementy, Initial residual = 2.9151e-05, Final residual = 4.6258e-10, No Iterations 5
GAMG:  Solving for cellDisplacementz, Initial residual = 2.6349e-05, Final residual = 3.7987e-10, No Iterations 5
PIMPLE: iteration 1
smoothSolver:  Solving for Ux, Initial residual = 6.1798e-06, Final residual = 2.5702e-09, No Iterations 1
smoothSolver:  Solving for Uy, Initial residual = 0.00021271, Final residual = 1.8728e-07, No Iterations 1
smoothSolver:  Solving for Uz, Initial residual = 0.00021274, Final residual = 1.8691e-07, No Iterations 1
DICPCG:  Solving for p, Initial residual = 0.15737, Final residual = 0.0013792, No Iterations 16
DICPCG:  Solving for p, Initial residual = 0.0087995, Final residual = 8.6142e-05, No Iterations 33
time step continuity errors : sum local = 3.1147e-08, global = 2.1592e-09, cumulative = -6.5927e-07
PIMPLE: iteration 2
smoothSolver:  Solving for Ux, Initial residual = 0.00011729, Final residual = 2.9017e-08, No Iterations 1
smoothSolver:  Solving for Uy, Initial residual = 0.0029804, Final residual = 2.7312e-06, No Iterations 1
smoothSolver:  Solving for Uz, Initial residual = 0.0029743, Final residual = 2.7246e-06, No Iterations 1
DICPCG:  Solving for p, Initial residual = 0.031086, Final residual = 0.00026498, No Iterations 6
DICPCG:  Solving for p, Initial residual = 0.0017394, Final residual = 1.5743e-05, No Iterations 30
time step continuity errors : sum local = 5.6037e-09, global = 5.3536e-10, cumulative = -6.5874e-07
PIMPLE: iteration 3
smoothSolver:  Solving for Ux, Initial residual = 7.7811e-05, Final residual = 2.902e-08, No Iterations 1
smoothSolver:  Solving for Uy, Initial residual = 0.0021481, Final residual = 1.6181e-09, No Iterations 2
smoothSolver:  Solving for Uz, Initial residual = 0.0021457, Final residual = 1.614e-09, No Iterations 2
DICPCG:  Solving for p, Initial residual = 0.13406, Final residual = 0.0012163, No Iterations 16
DICPCG:  Solving for p, Initial residual = 0.0095898, Final residual = 5.9864e-10, No Iterations 56
time step continuity errors : sum local = 2.3791e-13, global = 4.5046e-15, cumulative = -6.5874e-07
ExecutionTime = 327.83 s  ClockTime = 6331 s

surfaceRegion PRESSURE_mantle write:
    none(mantle) of p = 0

surfaceRegion TRACTION_mantle write:
    none(mantle) of wallShearStress = (0 0 0)

I get past the save

Reading pointDisplacement

prev_runTime0.0099
GAMG:  Solving for cellDisplacementx, Initial residual = 1.1451e-06, Final residual = 8.1409e-10, No Iterations 3
GAMG:  Solving for cellDisplacementy, Initial residual = 8.4397e-06, Final residual = 7.5485e-10, No Iterations 4
GAMG:  Solving for cellDisplacementz, Initial residual = 7.826e-06, Final residual = 7.2063e-10, No Iterations 4
PIMPLE: iteration 1
smoothSolver:  Solving for Ux, Initial residual = 6.0886e-06, Final residual = 2.5243e-09, No Iterations 1
smoothSolver:  Solving for Uy, Initial residual = 0.00021273, Final residual = 1.8718e-07, No Iterations 1
smoothSolver:  Solving for Uz, Initial residual = 0.00021266, Final residual = 1.8702e-07, No Iterations 1
DICPCG:  Solving for p, Initial residual = 0.15827, Final residual = 0.0011971, No Iterations 23
DICPCG:  Solving for p, Initial residual = 0.0087169, Final residual = 7.8704e-05, No Iterations 32
time step continuity errors : sum local = 2.858e-08, global = -2.6157e-09, cumulative = -6.6135e-07
PIMPLE: iteration 2
smoothSolver:  Solving for Ux, Initial residual = 0.00012144, Final residual = 2.9238e-08, No Iterations 1
smoothSolver:  Solving for Uy, Initial residual = 0.0029797, Final residual = 2.7273e-06, No Iterations 1
smoothSolver:  Solving for Uz, Initial residual = 0.0029778, Final residual = 2.7272e-06, No Iterations 1
DICPCG:  Solving for p, Initial residual = 0.031071, Final residual = 0.00023552, No Iterations 6
DICPCG:  Solving for p, Initial residual = 0.0017237, Final residual = 1.6678e-05, No Iterations 33
time step continuity errors : sum local = 5.9416e-09, global = -4.6442e-10, cumulative = -6.6182e-07
PIMPLE: iteration 3
smoothSolver:  Solving for Ux, Initial residual = 7.9732e-05, Final residual = 2.9031e-08, No Iterations 1
smoothSolver:  Solving for Uy, Initial residual = 0.0021487, Final residual = 1.6172e-09, No Iterations 2
smoothSolver:  Solving for Uz, Initial residual = 0.0021477, Final residual = 1.6153e-09, No Iterations 2
DICPCG:  Solving for p, Initial residual = 0.13387, Final residual = 0.0012376, No Iterations 16
DICPCG:  Solving for p, Initial residual = 0.009589, Final residual = 6.7002e-10, No Iterations 56
time step continuity errors : sum local = 2.6665e-13, global = 1.6806e-15, cumulative = -6.6182e-07
ExecutionTime = 328.58 s  ClockTime = 6345 s

surfaceRegion PRESSURE_mantle write:
    none(mantle) of p = 0

surfaceRegion TRACTION_mantle write:
    none(mantle) of wallShearStress = (0 0 0)

I get past the save

