LANG en_US.UTF-8 changed temporarily to en_US for gambit use.
Starting /apps/RHEL8/Gambit/2.4.6/Fluent.Inc/gambit2.4.6/lnamd64/gambit -inp mesh.jou...
Gambit build SP2007051420.

*** LISTING "default_id" FILES IN DIRECTORY:
    .

    default_id.lok
Copyright(c) 1988-2024, Fluent Inc. All rights reserved.
http://www.fluent.com

Gambit incorporates Simulation Modeling Suite(TM) software by Simmetrix Inc.

Portions of this software are owned by Parametric Technology Corporation.
Copyright(c) 2002. All Rights Reserved.

Portions of this software are owned by Unigraphics Solutions Corporation or its subsidiaries.
Copyright(c) 2004. All Rights Reserved.

Spatial Indexing Library version 0.81b (beta) provided under GNU Lesser General Public License
(http://www.gnu.org/copyleft/lesser.html)

/LIQUID DOMAIN
/PARAMETERS
Command> $L = 0.001
Command> $H = 0.1
Command> $Xintervals = 10
Command> $Yintervals = 1000
/CODE
Command> save name "2D_liquid.dbs"
Command> solver select "FLUENT 5/6"
Command> vertex create "LeftBottom" coordinates 0 0 0
Created vertex: LeftBottom
Command> vertex create "LeftTop" coordinates 0 $H 0
Created vertex: LeftTop
Command> vertex create "RightBottom" coordinates $L 0 0
Created vertex: RightBottom
Command> vertex create "RightTop" coordinates $L $H 0
Created vertex: RightTop
Command> edge create "Bottom" straight "LeftBottom" "RightBottom"
Created edge: Bottom
Command> edge create "Left" straight "LeftTop" "LeftBottom"
Created edge: Left
Command> edge create "Right" straight "RightTop" "RightBottom"
Created edge: Right
Command> edge create "Top" straight "LeftTop" "RightTop"
Created edge: Top
Command> face create "FluidInternal" wireframe "Top" "Right" "Bottom" "Left"
Created face: FluidInternal
Command> edge link "Bottom" "Top" directions 0 0
Linked vertex LeftBottom and LeftTop for meshing
Linked vertex RightBottom and RightTop for meshing
Linked edge Bottom and Top for meshing
Command> edge link "Left" "Right" directions 0 0
Linked vertex LeftTop and RightTop for meshing
Linked edge Left and Right for meshing
Command> edge mesh "Bottom" intervals $Xintervals
Mesh generated for edge Bottom:   mesh edges = 10.
Mesh copied to linked edge Top:   mesh edges = 10.
Command> edge mesh "Left" intervals $Yintervals
Mesh generated for edge Left:   mesh edges = 1000.
Mesh copied to linked edge Right:   mesh edges = 1000.
Command> face mesh "FluidInternal" submap
Mesh generated for face FluidInternal:   mesh faces = 10000.
Command> physics create "boundary" btype "WALL" edge "Right"
Created Boundary entity: boundary
Command> physics create "heated" btype "WALL" edge "Left"
Created Boundary entity: heated
Command> physics create "top" btype "WALL" edge "Top"
Created Boundary entity: top
Command> physics create "bottom" btype "WALL" edge "Bottom"
Created Boundary entity: bottom
Command> physics create "Fluid" ctype "FLUID" face "FluidInternal"
Created Continuum entity: Fluid
Command> export fluent5 "2D_liquid.msh" nozval
Mesh was successfully written to 2D_liquid.msh.
Command> save
Command> end
Total of 0.18 cpu second(s), 13331440 maximum memory.
