*Heading
 turek
** Job name: case_turek Model name: Model-1
** Generated by: Abaqus/CAE 2024
*Preprint, echo=NO, model=NO, history=NO, contact=NO
**
** PARTS
**
*Part, name=PART-1
*Node
      1,  0.248989999,  0.189999998
      2,  0.248989999,  0.209999993
      3,  0.600000024,  0.189999998
      4,  0.600000024,  0.209999993
      5,  0.251915008,  0.189999998
      6,  0.254839987,  0.189999998
      7,  0.257764995,  0.189999998
      8,  0.260690004,  0.189999998
      9,  0.263615012,  0.189999998
     10,  0.266539991,  0.189999998
     11,  0.269464999,  0.189999998
     12,  0.272390008,  0.189999998
     13,     0.275316,  0.189999998
     14,  0.278241009,  0.189999998
     15,  0.281165987,  0.189999998
     16,  0.284090996,  0.189999998
     17,  0.287016004,  0.189999998
     18,  0.289941013,  0.189999998
     19,  0.292865992,  0.189999998
     20,     0.295791,  0.189999998
** ... 4565 like lines cut
*Element, type=CPE8R
   1,  493,  529,  123,    3, 1839, 1838,  243,  505
   2,  529,  540,  122,  123, 1841, 1840,  242, 1838
   3,  540,  551,  121,  122, 1843, 1842,  241, 1840
   4,  551,  562,  120,  121, 1845, 1844,  240, 1842
   5,  562,  573,  119,  120, 1847, 1846,  239, 1844
   6,  573,  584,  118,  119, 1849, 1848,  238, 1846
   7,  584,  595,  117,  118, 1851, 1850,  237, 1848
   8,  595,  606,  116,  117, 1853, 1852,  236, 1850
   9,  606,  617,  115,  116, 1855, 1854,  235, 1852
  10,  617,  628,  114,  115, 1857, 1856,  234, 1854
  11,  628,  639,  113,  114, 1859, 1858,  233, 1856
  12,  639,  650,  112,  113, 1861, 1860,  232, 1858
  13,  650,  661,  111,  112, 1863, 1862,  231, 1860
  14,  661,  672,  110,  111, 1865, 1864,  230, 1862
  15,  672,  683,  109,  110, 1867, 1866,  229, 1864
  16,  683,  694,  108,  109, 1869, 1868,  228, 1866
  17,  694,  705,  107,  108, 1871, 1870,  227, 1868
  18,  705,  716,  106,  107, 1873, 1872,  226, 1870
  19,  716,  727,  105,  106, 1875, 1874,  225, 1872
  20,  727,  738,  104,  105, 1877, 1876,  224, 1874
** ... 1420 like lines cut
*Nset, nset=NALL, generate
    1,  4585,     1
*Nset, nset=BEAMINSIDEMOVING0
   2,   4, 244, 245, 246, 247, 248, 249, 250, 251, 252, 253, 254, 255, 256, 257
 258, 259, 260, 261, 262, 263, 264, 265, 266, 267, 268, 269, 270, 271, 272, 273
 274, 275, 276, 277, 278, 279, 280, 281, 282, 283, 284, 285, 286, 287, 288, 289
 290, 291, 292, 293, 294, 295, 296, 297, 298, 299, 300, 301, 302, 303, 304, 305
 306, 307, 308, 309, 310, 311, 312, 313, 314, 315, 316, 317, 318, 319, 320, 321
 322, 323, 324, 325, 326, 327, 328, 329, 330, 331, 332, 333, 334, 335, 336, 337
 338, 339, 340, 341, 342, 343, 344, 345, 346, 347, 348, 349, 350, 351, 352, 353
 354, 355, 356, 357, 358, 359, 360, 361, 362, 363, 364, 365, 366, 367, 368, 369
 370, 371, 372, 373, 374, 375, 376, 377, 378, 379, 380, 381, 382, 383, 384, 385
 386, 387, 388, 389, 390, 391, 392, 393, 394, 395, 396, 397, 398, 399, 400, 401
 402, 403, 404, 405, 406, 407, 408, 409, 410, 411, 412, 413, 414, 415, 416, 417
 418, 419, 420, 421, 422, 423, 424, 425, 426, 427, 428, 429, 430, 431, 432, 433
 434, 435, 436, 437, 438, 439, 440, 441, 442, 443, 444, 445, 446, 447, 448, 449
 450, 451, 452, 453, 454, 455, 456, 457, 458, 459, 460, 461, 462, 463, 464, 465
 466, 467, 468, 469, 470, 471, 472, 473, 474, 475, 476, 477, 478, 479, 480, 481
 482,
*Nset, nset=BEAMINSIDEMOVING1
   3,   4, 483, 484, 485, 486, 487, 488, 489, 490, 491, 492, 493, 494, 495, 496
 497, 498, 499, 500, 501, 502, 503, 504, 505
*Nset, nset=BEAMINSIDEMOVING2
   1,   3,   5,   6,   7,   8,   9,  10,  11,  12,  13,  14,  15,  16,  17,  18
  19,  20,  21,  22,  23,  24,  25,  26,  27,  28,  29,  30,  31,  32,  33,  34
  35,  36,  37,  38,  39,  40,  41,  42,  43,  44,  45,  46,  47,  48,  49,  50
  51,  52,  53,  54,  55,  56,  57,  58,  59,  60,  61,  62,  63,  64,  65,  66
  67,  68,  69,  70,  71,  72,  73,  74,  75,  76,  77,  78,  79,  80,  81,  82
  83,  84,  85,  86,  87,  88,  89,  90,  91,  92,  93,  94,  95,  96,  97,  98
  99, 100, 101, 102, 103, 104, 105, 106, 107, 108, 109, 110, 111, 112, 113, 114
 115, 116, 117, 118, 119, 120, 121, 122, 123, 124, 125, 126, 127, 128, 129, 130
 131, 132, 133, 134, 135, 136, 137, 138, 139, 140, 141, 142, 143, 144, 145, 146
 147, 148, 149, 150, 151, 152, 153, 154, 155, 156, 157, 158, 159, 160, 161, 162
 163, 164, 165, 166, 167, 168, 169, 170, 171, 172, 173, 174, 175, 176, 177, 178
 179, 180, 181, 182, 183, 184, 185, 186, 187, 188, 189, 190, 191, 192, 193, 194
 195, 196, 197, 198, 199, 200, 201, 202, 203, 204, 205, 206, 207, 208, 209, 210
 211, 212, 213, 214, 215, 216, 217, 218, 219, 220, 221, 222, 223, 224, 225, 226
 227, 228, 229, 230, 231, 232, 233, 234, 235, 236, 237, 238, 239, 240, 241, 242
 243,
*Nset, nset=BEAMINSIDEFIXED
   1,   2, 506, 507, 508, 509, 510, 511, 512, 513, 514, 515, 516, 517, 518, 519
 520, 521, 522, 523, 524, 525, 526, 527, 528
*Elset, elset=EALL, generate
    1,  1440,     1
*Elset, elset=BEAM, generate
    1,  1440,     1
*Elset, elset=_PickedSet9, internal, generate
    1,  1440,     1
** Section: BeamSection
*Solid Section, elset=_PickedSet9, material=Material
1.,
*End Part
**  
**
** ASSEMBLY
**
*Assembly, name=Assembly
**  
*Instance, name=PART-1-1, part=PART-1
*End Instance
**  
*Elset, elset=BEAM, instance=PART-1-1, generate
    1,  1440,     1
*Nset, nset=BEAMINSIDEFIXED, instance=PART-1-1
   1,   2, 506, 507, 508, 509, 510, 511, 512, 513, 514, 515, 516, 517, 518, 519
 520, 521, 522, 523, 524, 525, 526, 527, 528
*Nset, nset=BEAMINSIDEMOVING2, instance=PART-1-1
   1,   3,   5,   6,   7,   8,   9,  10,  11,  12,  13,  14,  15,  16,  17,  18
  19,  20,  21,  22,  23,  24,  25,  26,  27,  28,  29,  30,  31,  32,  33,  34
  35,  36,  37,  38,  39,  40,  41,  42,  43,  44,  45,  46,  47,  48,  49,  50
  51,  52,  53,  54,  55,  56,  57,  58,  59,  60,  61,  62,  63,  64,  65,  66
  67,  68,  69,  70,  71,  72,  73,  74,  75,  76,  77,  78,  79,  80,  81,  82
  83,  84,  85,  86,  87,  88,  89,  90,  91,  92,  93,  94,  95,  96,  97,  98
  99, 100, 101, 102, 103, 104, 105, 106, 107, 108, 109, 110, 111, 112, 113, 114
 115, 116, 117, 118, 119, 120, 121, 122, 123, 124, 125, 126, 127, 128, 129, 130
 131, 132, 133, 134, 135, 136, 137, 138, 139, 140, 141, 142, 143, 144, 145, 146
 147, 148, 149, 150, 151, 152, 153, 154, 155, 156, 157, 158, 159, 160, 161, 162
 163, 164, 165, 166, 167, 168, 169, 170, 171, 172, 173, 174, 175, 176, 177, 178
 179, 180, 181, 182, 183, 184, 185, 186, 187, 188, 189, 190, 191, 192, 193, 194
 195, 196, 197, 198, 199, 200, 201, 202, 203, 204, 205, 206, 207, 208, 209, 210
 211, 212, 213, 214, 215, 216, 217, 218, 219, 220, 221, 222, 223, 224, 225, 226
 227, 228, 229, 230, 231, 232, 233, 234, 235, 236, 237, 238, 239, 240, 241, 242
 243,
*Nset, nset=BEAMINSIDEMOVING1, instance=PART-1-1
   3,   4, 483, 484, 485, 486, 487, 488, 489, 490, 491, 492, 493, 494, 495, 496
 497, 498, 499, 500, 501, 502, 503, 504, 505
*Nset, nset=BEAMINSIDEMOVING0, instance=PART-1-1
   2,   4, 244, 245, 246, 247, 248, 249, 250, 251, 252, 253, 254, 255, 256, 257
 258, 259, 260, 261, 262, 263, 264, 265, 266, 267, 268, 269, 270, 271, 272, 273
 274, 275, 276, 277, 278, 279, 280, 281, 282, 283, 284, 285, 286, 287, 288, 289
 290, 291, 292, 293, 294, 295, 296, 297, 298, 299, 300, 301, 302, 303, 304, 305
 306, 307, 308, 309, 310, 311, 312, 313, 314, 315, 316, 317, 318, 319, 320, 321
 322, 323, 324, 325, 326, 327, 328, 329, 330, 331, 332, 333, 334, 335, 336, 337
 338, 339, 340, 341, 342, 343, 344, 345, 346, 347, 348, 349, 350, 351, 352, 353
 354, 355, 356, 357, 358, 359, 360, 361, 362, 363, 364, 365, 366, 367, 368, 369
 370, 371, 372, 373, 374, 375, 376, 377, 378, 379, 380, 381, 382, 383, 384, 385
 386, 387, 388, 389, 390, 391, 392, 393, 394, 395, 396, 397, 398, 399, 400, 401
 402, 403, 404, 405, 406, 407, 408, 409, 410, 411, 412, 413, 414, 415, 416, 417
 418, 419, 420, 421, 422, 423, 424, 425, 426, 427, 428, 429, 430, 431, 432, 433
 434, 435, 436, 437, 438, 439, 440, 441, 442, 443, 444, 445, 446, 447, 448, 449
 450, 451, 452, 453, 454, 455, 456, 457, 458, 459, 460, 461, 462, 463, 464, 465
 466, 467, 468, 469, 470, 471, 472, 473, 474, 475, 476, 477, 478, 479, 480, 481
 482,
*Elset, elset=EALL, instance=PART-1-1, generate
    1,  1440,     1
*Nset, nset=NALL, instance=PART-1-1, generate
    1,  4585,     1
*Elset, elset=_BEAMINSIDEMOVING2_S3, internal, instance=PART-1-1, generate
   1,  120,    1
*Surface, type=ELEMENT, name=BEAMINSIDEMOVING2
_BEAMINSIDEMOVING2_S3, S3
*Elset, elset=_BEAMINSIDEMOVING1_S4, internal, instance=PART-1-1, generate
    1,  1321,   120
*Surface, type=ELEMENT, name=BEAMINSIDEMOVING1
_BEAMINSIDEMOVING1_S4, S4
*Elset, elset=_BEAMINSIDEMOVING0_S1, internal, instance=PART-1-1, generate
 1321,  1440,     1
*Surface, type=ELEMENT, name=BEAMINSIDEMOVING0
_BEAMINSIDEMOVING0_S1, S1
*End Assembly
** 
** MATERIALS
** 
*Material, name=Material
*Density
10000.,
*Elastic
 1.4e+06, 0.4
** ----------------------------------------------------------------
** 
** STEP: Step-1
** 
*Step, name=Step-1, nlgeom=YES, amplitude=RAMP, inc=99
*Dynamic,application=MODERATE DISSIPATION,direct,nohaf,initial=NO
0.002,0.002,
**
*PRINT,SOLVE=YES
** BOUNDARY CONDITIONS
** 
** Name: FixedLeftEnd Type: Displacement/Rotation
*Boundary
BEAMINSIDEFIXED, 1, 1
BEAMINSIDEFIXED, 2, 2
**
** OUTPUT REQUESTS
** 
*Restart, write, number interval=2
** 
** FIELD OUTPUT: F-Output-1
** 
*Output, field, frequency=1
*Node Output
COORD, U
*Element Output, directions=YES
COORD, 
** 
** FIELD OUTPUT: F-Output-2
** 
*Output, field, variable=PRESELECT, frequency=1
** 
** HISTORY OUTPUT: H-Output-1
** 
*Output, history, variable=PRESELECT, frequency=1
*End Step
