*Heading
 turek
** Job name: case_turek Model name: Model-1
** Generated by: Abaqus/CAE 2024
*Preprint, echo=NO, model=NO, history=NO, contact=NO
**
** PARTS
**
*Part, name=PART-1
*Node
      1,  0.248989999,  0.189999998
      2,  0.248989999,  0.209999993
      3,  0.600000024,  0.189999998
      4,  0.600000024,  0.209999993
      5,  0.251915008,  0.189999998
      6,  0.254839987,  0.189999998
      7,  0.257764995,  0.189999998
      8,  0.260690004,  0.189999998
      9,  0.263615012,  0.189999998
     10,  0.266539991,  0.189999998
     11,  0.269464999,  0.189999998
     12,  0.272390008,  0.189999998
     13,     0.275316,  0.189999998
     14,  0.278241009,  0.189999998
     15,  0.281165987,  0.189999998
     16,  0.284090996,  0.189999998
     17,  0.287016004,  0.189999998
     18,  0.289941013,  0.189999998
     19,  0.292865992,  0.189999998
     20,     0.295791,  0.189999998
** ... 1553 like lines cut
*Element, type=CPE4R
   1,  253,  265,  123,    3
   2,  265,  276,  122,  123
   3,  276,  287,  121,  122
   4,  287,  298,  120,  121
   5,  298,  309,  119,  120
   6,  309,  320,  118,  119
   7,  320,  331,  117,  118
   8,  331,  342,  116,  117
   9,  342,  353,  115,  116
  10,  353,  364,  114,  115
  11,  364,  375,  113,  114
  12,  375,  386,  112,  113
  13,  386,  397,  111,  112
  14,  397,  408,  110,  111
  15,  408,  419,  109,  110
  16,  419,  430,  108,  109
  17,  430,  441,  107,  108
  18,  441,  452,  106,  107
  19,  452,  463,  105,  106
  20,  463,  474,  104,  105
** ... 1420 like lines cut
*Nset, nset=NALL, generate
    1,  1573,     1
*Nset, nset=BEAMINSIDEMOVING0
   2,   4, 124, 125, 126, 127, 128, 129, 130, 131, 132, 133, 134, 135, 136, 137
 138, 139, 140, 141, 142, 143, 144, 145, 146, 147, 148, 149, 150, 151, 152, 153
 154, 155, 156, 157, 158, 159, 160, 161, 162, 163, 164, 165, 166, 167, 168, 169
 170, 171, 172, 173, 174, 175, 176, 177, 178, 179, 180, 181, 182, 183, 184, 185
 186, 187, 188, 189, 190, 191, 192, 193, 194, 195, 196, 197, 198, 199, 200, 201
 202, 203, 204, 205, 206, 207, 208, 209, 210, 211, 212, 213, 214, 215, 216, 217
 218, 219, 220, 221, 222, 223, 224, 225, 226, 227, 228, 229, 230, 231, 232, 233
 234, 235, 236, 237, 238, 239, 240, 241, 242
*Nset, nset=BEAMINSIDEMOVING1
   3,   4, 243, 244, 245, 246, 247, 248, 249, 250, 251, 252, 253
*Nset, nset=BEAMINSIDEMOVING2
   1,   3,   5,   6,   7,   8,   9,  10,  11,  12,  13,  14,  15,  16,  17,  18
  19,  20,  21,  22,  23,  24,  25,  26,  27,  28,  29,  30,  31,  32,  33,  34
  35,  36,  37,  38,  39,  40,  41,  42,  43,  44,  45,  46,  47,  48,  49,  50
  51,  52,  53,  54,  55,  56,  57,  58,  59,  60,  61,  62,  63,  64,  65,  66
  67,  68,  69,  70,  71,  72,  73,  74,  75,  76,  77,  78,  79,  80,  81,  82
  83,  84,  85,  86,  87,  88,  89,  90,  91,  92,  93,  94,  95,  96,  97,  98
  99, 100, 101, 102, 103, 104, 105, 106, 107, 108, 109, 110, 111, 112, 113, 114
 115, 116, 117, 118, 119, 120, 121, 122, 123
*Nset, nset=BEAMINSIDEFIXED
   1,   2, 254, 255, 256, 257, 258, 259, 260, 261, 262, 263, 264
*Elset, elset=EALL, generate
    1,  1440,     1
*Elset, elset=BEAM, generate
    1,  1440,     1
*Elset, elset=_PickedSet9, internal, generate
    1,  1440,     1
** Section: BeamSection
*Solid Section, elset=_PickedSet9, material=Material
1.,
*End Part
**  
**
** ASSEMBLY
**
*Assembly, name=Assembly
**  
*Instance, name=PART-1-1, part=PART-1
*End Instance
**  
*Elset, elset=BEAM, instance=PART-1-1, generate
    1,  1440,     1
*Nset, nset=BEAMINSIDEFIXED, instance=PART-1-1
   1,   2, 254, 255, 256, 257, 258, 259, 260, 261, 262, 263, 264
*Nset, nset=BEAMINSIDEMOVING2, instance=PART-1-1
   1,   3,   5,   6,   7,   8,   9,  10,  11,  12,  13,  14,  15,  16,  17,  18
  19,  20,  21,  22,  23,  24,  25,  26,  27,  28,  29,  30,  31,  32,  33,  34
  35,  36,  37,  38,  39,  40,  41,  42,  43,  44,  45,  46,  47,  48,  49,  50
  51,  52,  53,  54,  55,  56,  57,  58,  59,  60,  61,  62,  63,  64,  65,  66
  67,  68,  69,  70,  71,  72,  73,  74,  75,  76,  77,  78,  79,  80,  81,  82
  83,  84,  85,  86,  87,  88,  89,  90,  91,  92,  93,  94,  95,  96,  97,  98
  99, 100, 101, 102, 103, 104, 105, 106, 107, 108, 109, 110, 111, 112, 113, 114
 115, 116, 117, 118, 119, 120, 121, 122, 123
*Nset, nset=BEAMINSIDEMOVING1, instance=PART-1-1
   3,   4, 243, 244, 245, 246, 247, 248, 249, 250, 251, 252, 253
*Nset, nset=BEAMINSIDEMOVING0, instance=PART-1-1
   2,   4, 124, 125, 126, 127, 128, 129, 130, 131, 132, 133, 134, 135, 136, 137
 138, 139, 140, 141, 142, 143, 144, 145, 146, 147, 148, 149, 150, 151, 152, 153
 154, 155, 156, 157, 158, 159, 160, 161, 162, 163, 164, 165, 166, 167, 168, 169
 170, 171, 172, 173, 174, 175, 176, 177, 178, 179, 180, 181, 182, 183, 184, 185
 186, 187, 188, 189, 190, 191, 192, 193, 194, 195, 196, 197, 198, 199, 200, 201
 202, 203, 204, 205, 206, 207, 208, 209, 210, 211, 212, 213, 214, 215, 216, 217
 218, 219, 220, 221, 222, 223, 224, 225, 226, 227, 228, 229, 230, 231, 232, 233
 234, 235, 236, 237, 238, 239, 240, 241, 242
*Elset, elset=EALL, instance=PART-1-1, generate
    1,  1440,     1
*Nset, nset=NALL, instance=PART-1-1, generate
    1,  1573,     1
*Elset, elset=_BEAMINSIDEMOVING2_S3, internal, instance=PART-1-1, generate
   1,  120,    1
*Surface, type=ELEMENT, name=BEAMINSIDEMOVING2
_BEAMINSIDEMOVING2_S3, S3
*Elset, elset=_BEAMINSIDEMOVING1_S4, internal, instance=PART-1-1, generate
    1,  1321,   120
*Surface, type=ELEMENT, name=BEAMINSIDEMOVING1
_BEAMINSIDEMOVING1_S4, S4
*Elset, elset=_BEAMINSIDEMOVING0_S1, internal, instance=PART-1-1, generate
 1321,  1440,     1
*Surface, type=ELEMENT, name=BEAMINSIDEMOVING0
_BEAMINSIDEMOVING0_S1, S1
*End Assembly
** 
** MATERIALS
** 
*Material, name=Material
*Density
10000.,
*Elastic
 1.4e+06, 0.4
** ----------------------------------------------------------------
** 
** STEP: Step-1
** 
*Step, name=Step-1, nlgeom=YES, amplitude=RAMP, inc=99
*Dynamic,application=MODERATE DISSIPATION,direct,nohaf
0.002,0.002,
**
** BOUNDARY CONDITIONS
** 
** Name: FixedLeftEnd Type: Displacement/Rotation
*Boundary
BEAMINSIDEFIXED, 1, 1
BEAMINSIDEFIXED, 2, 2
**
** OUTPUT REQUESTS
** 
*Restart, write, number interval=100
** 
** FIELD OUTPUT: F-Output-1
** 
*Output, field, frequency=1
*Node Output
COORD, U
*Element Output, directions=YES
COORD, TRVEC
** 
** FIELD OUTPUT: F-Output-2
** 
*Output, field, variable=PRESELECT, frequency=1
** 
** HISTORY OUTPUT: H-Output-1
** 
*Output, history, variable=PRESELECT, frequency=1
*End Step
