/*---------------------------------------------------------------------------*\
| =========                 |                                                 |
| \\      /  F ield         | OpenFOAM: The Open Source CFD Toolbox           |
|  \\    /   O peration     | Version:  4.1                                   |
|   \\  /    A nd           | Web:      www.OpenFOAM.org                      |
|    \\/     M anipulation  |                                                 |
\*---------------------------------------------------------------------------*/
Build  : 4.1
Exec   : CoCoNuT_pimpleFoam -parallel
Date   : Sep 07 2020
Time   : 16:53:31
Host   : "cfdclu27.ugent.be"
PID    : 4673
Case   : /cfdfile2/data/fm/mathieu/PycharmProjects/coconut/coconut/test_examples/tube_OpenFoam3d_abaqus3d/Test_Writing_pointDisplacementFromSourceCode_Explicit
nProcs : 2
Slaves : 1("cfdclu27.ugent.be.4674")
Pstream initialized with:
    floatTransfer      : 0
    nProcsSimpleSum    : 0
    commsType          : nonBlocking
    polling iterations : 0
sigFpe : Enabling floating point exception trapping (FOAM_SIGFPE).
fileModificationChecking : Monitoring run-time modified files using timeStampMaster
allowSystemOperations : Allowing user-supplied system call operations

// * * * * * * * * * * * * * * * * * * * * * * * * * * * * * * * * * * * * * //
Create time

Create mesh for time = 0.000000

Selecting dynamicFvMesh dynamicMotionSolverFvMesh
Selecting motion solver: displacementLaplacian
Selecting motion diffusion: inverseDistance

PIMPLE: Operating solver in PISO mode

Reading field p

Reading field U

Reading/calculating face flux field phi

Selecting incompressible transport model Newtonian
Selecting turbulence model type RAS
Selecting RAS turbulence model kEpsilon
kEpsilonCoeffs
{
    Cmu             0.09;
    C1              1.44;
    C2              1.92;
    C3              -0.33;
    sigmak          1;
    sigmaEps        1.3;
}

No MRF models present

Reading/calculating face velocity Uf

No finite volume options present

Courant Number mean: 0 max: 0
wallShearStress wallShearStress:
    processing wall patches: 
        mantle

Courant Number mean: 0 max: 0
0.000000

Time = 0.000010

Reading pointDisplacement

prev_runTime0.000000
GAMG:  Solving for cellDisplacementx, Initial residual = 0, Final residual = 0, No Iterations 0
GAMG:  Solving for cellDisplacementy, Initial residual = 1, Final residual = 0.0042820362, No Iterations 2
GAMG:  Solving for cellDisplacementz, Initial residual = 1, Final residual = 0.0045244946, No Iterations 2
PIMPLE: iteration 1
smoothSolver:  Solving for Ux, Initial residual = 1, Final residual = 1.0217399e-07, No Iterations 3
smoothSolver:  Solving for Uy, Initial residual = 0, Final residual = 0, No Iterations 0
smoothSolver:  Solving for Uz, Initial residual = 0, Final residual = 0, No Iterations 0
GAMG:  Solving for p, Initial residual = 1, Final residual = 0.0017996943, No Iterations 2
time step continuity errors : sum local = 8.3591397e-06, global = -3.0166735e-06, cumulative = -3.0166735e-06
GAMG:  Solving for p, Initial residual = 0.032381667, Final residual = 6.7300371e-08, No Iterations 8
time step continuity errors : sum local = 6.2745469e-10, global = 1.2465734e-10, cumulative = -3.0165488e-06
smoothSolver:  Solving for epsilon, Initial residual = 0.024176631, Final residual = 2.0972302e-06, No Iterations 2
smoothSolver:  Solving for k, Initial residual = 1, Final residual = 2.9972344e-06, No Iterations 3
ExecutionTime = 0.31 s  ClockTime = 0 s

wallShearStress wallShearStress write:
    writing field wallShearStress
    min/max(mantle) = (-0.0094791206 -0.00035796633 -0.000359405), (-0.0038311485 0.00035137702 0.00036383243)
writeObjects writeObjects1 write:
    writing object pointDisplacement
I get past the save

Courant Number mean: 0.23360846 max: 1.1395691
0.000010

Time = 0.000020

Reading pointDisplacement

prev_runTime0.000010
GAMG:  Solving for cellDisplacementx, Initial residual = 0, Final residual = 0, No Iterations 0
GAMG:  Solving for cellDisplacementy, Initial residual = 0.60466117, Final residual = 0.0022866652, No Iterations 2
GAMG:  Solving for cellDisplacementz, Initial residual = 0.70029669, Final residual = 0.0026306414, No Iterations 2
PIMPLE: iteration 1
smoothSolver:  Solving for Ux, Initial residual = 0.82360848, Final residual = 1.344668e-06, No Iterations 4
smoothSolver:  Solving for Uy, Initial residual = 0.31238664, Final residual = 3.6048361e-06, No Iterations 3
smoothSolver:  Solving for Uz, Initial residual = 0.3084984, Final residual = 6.7613429e-06, No Iterations 3
GAMG:  Solving for p, Initial residual = 0.013185352, Final residual = 9.7253028e-05, No Iterations 3
time step continuity errors : sum local = 9.1426233e-07, global = -7.7883197e-07, cumulative = -3.7953808e-06
GAMG:  Solving for p, Initial residual = 0.0037622483, Final residual = 9.889068e-08, No Iterations 7
time step continuity errors : sum local = 9.2974999e-10, global = 7.4979842e-10, cumulative = -3.794631e-06
smoothSolver:  Solving for epsilon, Initial residual = 0.028369959, Final residual = 4.8760442e-06, No Iterations 2
smoothSolver:  Solving for k, Initial residual = 0.62082905, Final residual = 3.0862004e-06, No Iterations 3
ExecutionTime = 0.68 s  ClockTime = 4 s

wallShearStress wallShearStress write:
    writing field wallShearStress
    min/max(mantle) = (-0.019312202 -0.00067386246 -0.00071315489), (-0.0069383629 0.00067138396 0.0007125347)
writeObjects writeObjects1 write:
    writing object pointDisplacement
I get past the save

Finalising parallel run
