/*---------------------------------------------------------------------------*\
| =========                 |                                                 |
| \\      /  F ield         | OpenFOAM: The Open Source CFD Toolbox           |
|  \\    /   O peration     | Version:  4.1                                   |
|   \\  /    A nd           | Web:      www.OpenFOAM.org                      |
|    \\/     M anipulation  |                                                 |
\*---------------------------------------------------------------------------*/
Build  : 4.1
Exec   : reconstructPar
Date   : Sep 07 2020
Time   : 16:53:37
Host   : "cfdclu27.ugent.be"
PID    : 4700
Case   : /cfdfile2/data/fm/mathieu/PycharmProjects/coconut/coconut/test_examples/tube_OpenFoam3d_abaqus3d/Test_Writing_pointDisplacementFromSourceCode_Explicit
nProcs : 1
sigFpe : Enabling floating point exception trapping (FOAM_SIGFPE).
fileModificationChecking : Monitoring run-time modified files using timeStampMaster
allowSystemOperations : Allowing user-supplied system call operations

// * * * * * * * * * * * * * * * * * * * * * * * * * * * * * * * * * * * * * //
Create time



Reconstructing fields for mesh region0

Time = 0.000010

Reconstructing FV fields

    Reconstructing volVectorFields

        wallShearStress

Reconstructing point fields

    Reconstructing pointVectorFields

        pointDisplacement_Next
        pointDisplacement

No point fields

No lagrangian fields

Time = 0.000020

Reconstructing FV fields

    Reconstructing volScalarFields

        nut
        p
        k
        epsilon

    Reconstructing volVectorFields

        wallShearStress
        U
        cellDisplacement

    Reconstructing surfaceScalarFields

        phi

    Reconstructing surfaceVectorFields

        Uf

Reconstructing point fields

    Reconstructing pointVectorFields

        pointDisplacement

No point fields

No lagrangian fields


End

