/*---------------------------------------------------------------------------*\
| =========                 |                                                 |
| \\      /  F ield         | OpenFOAM: The Open Source CFD Toolbox           |
|  \\    /   O peration     | Version:  4.1                                   |
|   \\  /    A nd           | Web:      www.OpenFOAM.org                      |
|    \\/     M anipulation  |                                                 |
\*---------------------------------------------------------------------------*/
Build  : 4.1
Exec   : checkMesh
Date   : Nov 20 2020
Time   : 16:35:33
Host   : "cfdclu27.ugent.be"
PID    : 30664
Case   : /lusers/temp/mathieu/PycharmProjects/coconut/test_examples/wireDrawing_OpenFoam_abaqus/setup_openfoam
nProcs : 1
sigFpe : Enabling floating point exception trapping (FOAM_SIGFPE).
fileModificationChecking : Monitoring run-time modified files using timeStampMaster
allowSystemOperations : Allowing user-supplied system call operations

// * * * * * * * * * * * * * * * * * * * * * * * * * * * * * * * * * * * * * //
Create time

Create polyMesh for time = 0

Time = 0

Mesh stats
    points:           2002
    internal points:  0
    faces:            3700
    internal faces:   1700
    cells:            900
    faces per cell:   6
    boundary patches: 8
    point zones:      0
    face zones:       0
    cell zones:       0

Overall number of cells of each type:
    hexahedra:     900
    prisms:        0
    wedges:        0
    pyramids:      0
    tet wedges:    0
    tetrahedra:    0
    polyhedra:     0

Checking topology...
    Boundary definition OK.
    Cell to face addressing OK.
    Point usage OK.
    Upper triangular ordering OK.
    Face vertices OK.
    Number of regions: 1 (OK).

Checking patch topology for multiply connected surfaces...
    Patch               Faces    Points   Surface topology                  
    dieWall             90       182      ok (non-closed singly connected)  
    outlet              10       22       ok (non-closed singly connected)  
    upWire              50       102      ok (non-closed singly connected)  
    deformWire          20       42       ok (non-closed singly connected)  
    finalWire           20       42       ok (non-closed singly connected)  
    inlet               10       22       ok (non-closed singly connected)  
    back                900      1001     ok (non-closed singly connected)  
    front               900      1001     ok (non-closed singly connected)  

Checking geometry...
    Overall domain bounding box (-0.003 0.000645385 -3.52106e-05) (0.0005 0.000806455 3.52106e-05)
    Mesh has 2 geometric (non-empty/wedge) directions (1 1 0)
    Mesh has 3 solution (non-empty) directions (1 1 1)
    Wedge back with angle 2.5 degrees
    Wedge front with angle 2.5 degrees
    All edges aligned with or perpendicular to non-empty directions.
    Boundary openness (-2.96698e-18 -8.02557e-16 -3.95175e-17) OK.
    Max cell openness = 1.30385e-15 OK.
    Max aspect ratio = 62.5789 OK.
    Minimum face area = 9.20553e-12. Maximum face area = 6.51303e-09.  Face area magnitudes OK.
    Min volume = 5.632e-16. Max volume = 8.06727e-15.  Total volume = 2.68127e-12.  Cell volumes OK.
    Mesh non-orthogonality Max: 2.99715 average: 1.91051
    Non-orthogonality check OK.
    Face pyramids OK.
    Max skewness = 0.124365 OK.
    Coupled point location match (average 0) OK.

Mesh OK.

End

