/*---------------------------------------------------------------------------*\
| =========                 |                                                 |
| \\      /  F ield         | OpenFOAM: The Open Source CFD Toolbox           |
|  \\    /   O peration     | Version:  4.1                                   |
|   \\  /    A nd           | Web:      www.OpenFOAM.org                      |
|    \\/     M anipulation  |                                                 |
\*---------------------------------------------------------------------------*/
Build  : 4.1
Exec   : CoCoNuT_pimpleFoam
Date   : Jan 07 2021
Time   : 16:08:39
Host   : "cfdclu27.ugent.be"
PID    : 24969
Case   : /lusers/temp/mathieu/PycharmProjects/coconut/test_examples/wireDrawing_OpenFoam_abaqus6/CFD
nProcs : 1
sigFpe : Enabling floating point exception trapping (FOAM_SIGFPE).
fileModificationChecking : Monitoring run-time modified files using timeStampMaster
allowSystemOperations : Allowing user-supplied system call operations

// * * * * * * * * * * * * * * * * * * * * * * * * * * * * * * * * * * * * * //
Create time

Create mesh for time = 0.000000

Selecting dynamicFvMesh dynamicMotionSolverFvMesh
Selecting motion solver: displacementLaplacian
Selecting motion diffusion: directional

PIMPLE: no residual control data found. Calculations will employ 7 corrector loops

Reading field p

Reading field U

Reading/calculating face flux field phi

Selecting incompressible transport model Newtonian
Selecting turbulence model type laminar
No MRF models present

Reading/calculating face velocity Uf

No finite volume options present

Courant Number mean: 0.00157672 max: 0.0389911
surfaceRegion PRESSURE_upWire:
    total faces  = 30
    total area   = 5.93839e-08


wallShearStress wallShearStress:
    processing all wall patches

surfaceRegion TRACTION_upWire:
    total faces  = 30
    total area   = 5.93839e-08


surfaceRegion PRESSURE_deformWire:
    total faces  = 60
    total area   = 1.09685e-07


surfaceRegion TRACTION_deformWire:
    total faces  = 60
    total area   = 1.09685e-07


surfaceRegion PRESSURE_finalWire:
    total faces  = 15
    total area   = 2.81781e-08


surfaceRegion TRACTION_finalWire:
    total faces  = 15
    total area   = 2.81781e-08


Courant Number mean: 0.00157672 max: 0.0389911
0.000000

Time = 0.000001

Reading pointDisplacement

prev_runTime0.000000
Reading pointDisplacement

prev_runTime0.000000
Reading pointDisplacement

prev_runTime0.000000
GAMG:  Solving for cellDisplacementx, Initial residual = 0, Final residual = 0, No Iterations 0
GAMG:  Solving for cellDisplacementy, Initial residual = 1, Final residual = 2.4781e-07, No Iterations 4
GAMG:  Solving for cellDisplacementz, Initial residual = 1.53838e-05, Final residual = 5.23633e-09, No Iterations 2
DICPCG:  Solving for pcorr, Initial residual = 1, Final residual = 3.53918e-14, No Iterations 1
DICPCG:  Solving for pcorr, Initial residual = 2.14576e-05, Final residual = 2.14576e-05, No Iterations 0
time step continuity errors : sum local = 0.000211038, global = -2.55004e-16, cumulative = -2.55004e-16
PIMPLE: iteration 1
smoothSolver:  Solving for Ux, Initial residual = 1, Final residual = 0.0428696, No Iterations 3
smoothSolver:  Solving for Uy, Initial residual = 1, Final residual = 0.0543536, No Iterations 3
smoothSolver:  Solving for Uz, Initial residual = 0.0286698, Final residual = 0.0028237, No Iterations 2
DICPCG:  Solving for p, Initial residual = 1, Final residual = 1.37891e-13, No Iterations 1
DICPCG:  Solving for p, Initial residual = 2.16789e-05, Final residual = 5.00231e-19, No Iterations 1
time step continuity errors : sum local = 1.82558e-13, global = 1.28233e-14, cumulative = 1.25683e-14
DICPCG:  Solving for p, Initial residual = 0.0561281, Final residual = 9.4614e-16, No Iterations 1
DICPCG:  Solving for p, Initial residual = 4.33291e-06, Final residual = 2.90538e-20, No Iterations 1
time step continuity errors : sum local = 1.62525e-13, global = 4.30094e-14, cumulative = 5.55777e-14
DICPCG:  Solving for p, Initial residual = 0.0155102, Final residual = 3.31084e-17, No Iterations 1
DICPCG:  Solving for p, Initial residual = 1.22073e-06, Final residual = 1.7184e-20, No Iterations 1
time step continuity errors : sum local = 2.45287e-13, global = 8.03256e-15, cumulative = 6.36103e-14
DICPCG:  Solving for p, Initial residual = 0.00663351, Final residual = 1.90849e-17, No Iterations 1
DICPCG:  Solving for p, Initial residual = 4.27547e-07, Final residual = 4.27547e-07, No Iterations 0
time step continuity errors : sum local = 5.15002e-06, global = 3.38307e-14, cumulative = 9.74409e-14
DICPCG:  Solving for p, Initial residual = 0.00411996, Final residual = 1.02816e-17, No Iterations 1
DICPCG:  Solving for p, Initial residual = 2.71287e-07, Final residual = 2.71287e-07, No Iterations 0
time step continuity errors : sum local = 3.26792e-06, global = 3.55337e-14, cumulative = 1.32975e-13
DICPCG:  Solving for p, Initial residual = 0.00222242, Final residual = 2.45195e-18, No Iterations 1
DICPCG:  Solving for p, Initial residual = 1.18653e-07, Final residual = 1.18653e-07, No Iterations 0
time step continuity errors : sum local = 1.43121e-06, global = -5.26311e-15, cumulative = 1.27712e-13
DICPCG:  Solving for p, Initial residual = 0.0014313, Final residual = 2.05619e-18, No Iterations 1
DICPCG:  Solving for p, Initial residual = 7.96025e-08, Final residual = 7.96025e-08, No Iterations 0
time step continuity errors : sum local = 9.60316e-07, global = -1.64611e-14, cumulative = 1.1125e-13
DICPCG:  Solving for p, Initial residual = 0.000820741, Final residual = 8.32562e-19, No Iterations 1
DICPCG:  Solving for p, Initial residual = 4.05344e-08, Final residual = 4.05344e-08, No Iterations 0
time step continuity errors : sum local = 4.88746e-07, global = 5.56816e-14, cumulative = 1.66932e-13
DICPCG:  Solving for p, Initial residual = 0.000532166, Final residual = 5.74741e-19, No Iterations 1
DICPCG:  Solving for p, Initial residual = 2.68824e-08, Final residual = 2.68824e-08, No Iterations 0
time step continuity errors : sum local = 3.24126e-07, global = 5.43517e-14, cumulative = 2.21284e-13
DICPCG:  Solving for p, Initial residual = 0.000315486, Final residual = 1.41153e-19, No Iterations 1
DICPCG:  Solving for p, Initial residual = 1.52959e-08, Final residual = 1.52959e-08, No Iterations 0
time step continuity errors : sum local = 1.8445e-07, global = -8.22775e-15, cumulative = 2.13056e-13
PIMPLE: iteration 2
smoothSolver:  Solving for Ux, Initial residual = 0.31983, Final residual = 0.0124526, No Iterations 3
smoothSolver:  Solving for Uy, Initial residual = 0.308355, Final residual = 0.0121552, No Iterations 3
smoothSolver:  Solving for Uz, Initial residual = 0.283714, Final residual = 0.0176187, No Iterations 2
DICPCG:  Solving for p, Initial residual = 0.111944, Final residual = 1.86638e-14, No Iterations 1
DICPCG:  Solving for p, Initial residual = 5.15708e-05, Final residual = 6.81322e-19, No Iterations 1
time step continuity errors : sum local = 1.42224e-14, global = -1.1711e-15, cumulative = 2.11885e-13
DICPCG:  Solving for p, Initial residual = 0.15554, Final residual = 1.34784e-15, No Iterations 1
DICPCG:  Solving for p, Initial residual = 1.10409e-05, Final residual = 6.49832e-20, No Iterations 1
time step continuity errors : sum local = 6.07198e-15, global = -4.2888e-16, cumulative = 2.11456e-13
DICPCG:  Solving for p, Initial residual = 0.0381323, Final residual = 6.1121e-17, No Iterations 1
DICPCG:  Solving for p, Initial residual = 2.40118e-06, Final residual = 1.85362e-20, No Iterations 1
time step continuity errors : sum local = 8.68573e-15, global = 1.80957e-15, cumulative = 2.13266e-13
DICPCG:  Solving for p, Initial residual = 0.0175444, Final residual = 8.53678e-17, No Iterations 1
DICPCG:  Solving for p, Initial residual = 6.73883e-07, Final residual = 6.73883e-07, No Iterations 0
time step continuity errors : sum local = 2.41831e-06, global = -2.60721e-16, cumulative = 2.13005e-13
DICPCG:  Solving for p, Initial residual = 0.00933701, Final residual = 1.45931e-17, No Iterations 1
DICPCG:  Solving for p, Initial residual = 4.33809e-07, Final residual = 4.33809e-07, No Iterations 0
time step continuity errors : sum local = 1.56744e-06, global = -1.18602e-15, cumulative = 2.11819e-13
DICPCG:  Solving for p, Initial residual = 0.0053842, Final residual = 1.363e-17, No Iterations 1
DICPCG:  Solving for p, Initial residual = 1.88002e-07, Final residual = 1.88002e-07, No Iterations 0
time step continuity errors : sum local = 6.7865e-07, global = -8.75252e-16, cumulative = 2.10944e-13
DICPCG:  Solving for p, Initial residual = 0.00321467, Final residual = 2.12451e-18, No Iterations 1
DICPCG:  Solving for p, Initial residual = 1.2926e-07, Final residual = 1.2926e-07, No Iterations 0
time step continuity errors : sum local = 4.65712e-07, global = -5.62776e-16, cumulative = 2.10381e-13
DICPCG:  Solving for p, Initial residual = 0.00192699, Final residual = 3.24492e-18, No Iterations 1
DICPCG:  Solving for p, Initial residual = 6.74465e-08, Final residual = 6.74465e-08, No Iterations 0
time step continuity errors : sum local = 2.43044e-07, global = -8.45018e-17, cumulative = 2.10296e-13
DICPCG:  Solving for p, Initial residual = 0.00117321, Final residual = 1.48648e-18, No Iterations 1
DICPCG:  Solving for p, Initial residual = 4.46802e-08, Final residual = 4.46802e-08, No Iterations 0
time step continuity errors : sum local = 1.61095e-07, global = 3.91854e-16, cumulative = 2.10688e-13
DICPCG:  Solving for p, Initial residual = 0.000727879, Final residual = 8.29666e-19, No Iterations 1
DICPCG:  Solving for p, Initial residual = 2.61939e-08, Final residual = 2.61939e-08, No Iterations 0
time step continuity errors : sum local = 9.44393e-08, global = -3.27894e-16, cumulative = 2.1036e-13
PIMPLE: iteration 3
smoothSolver:  Solving for Ux, Initial residual = 0.0174662, Final residual = 0.000675898, No Iterations 3
smoothSolver:  Solving for Uy, Initial residual = 0.0417931, Final residual = 0.00412779, No Iterations 2
smoothSolver:  Solving for Uz, Initial residual = 0.284125, Final residual = 0.0143795, No Iterations 2
DICPCG:  Solving for p, Initial residual = 0.0459035, Final residual = 3.18038e-15, No Iterations 1
DICPCG:  Solving for p, Initial residual = 4.73382e-06, Final residual = 1.08047e-19, No Iterations 1
time step continuity errors : sum local = 1.0425e-14, global = 2.46317e-16, cumulative = 2.10607e-13
DICPCG:  Solving for p, Initial residual = 0.0331621, Final residual = 7.20243e-16, No Iterations 1
DICPCG:  Solving for p, Initial residual = 1.82452e-06, Final residual = 7.41261e-21, No Iterations 1
time step continuity errors : sum local = 9.80493e-15, global = 1.26994e-15, cumulative = 2.11877e-13
DICPCG:  Solving for p, Initial residual = 0.010979, Final residual = 1.48467e-17, No Iterations 1
DICPCG:  Solving for p, Initial residual = 5.14062e-07, Final residual = 5.14062e-07, No Iterations 0
time step continuity errors : sum local = 1.69792e-06, global = -1.56934e-15, cumulative = 2.10307e-13
DICPCG:  Solving for p, Initial residual = 0.00510477, Final residual = 1.96856e-18, No Iterations 1
DICPCG:  Solving for p, Initial residual = 1.54408e-07, Final residual = 1.54408e-07, No Iterations 0
time step continuity errors : sum local = 5.09175e-07, global = -9.63783e-16, cumulative = 2.09343e-13
DICPCG:  Solving for p, Initial residual = 0.00248418, Final residual = 3.29931e-18, No Iterations 1
DICPCG:  Solving for p, Initial residual = 8.75627e-08, Final residual = 8.75627e-08, No Iterations 0
time step continuity errors : sum local = 2.8946e-07, global = 1.0924e-15, cumulative = 2.10436e-13
DICPCG:  Solving for p, Initial residual = 0.00149414, Final residual = 8.6334e-19, No Iterations 1
DICPCG:  Solving for p, Initial residual = 3.45607e-08, Final residual = 3.45607e-08, No Iterations 0
time step continuity errors : sum local = 1.14344e-07, global = -2.11475e-15, cumulative = 2.08321e-13
DICPCG:  Solving for p, Initial residual = 0.000785364, Final residual = 6.23627e-19, No Iterations 1
DICPCG:  Solving for p, Initial residual = 2.40235e-08, Final residual = 2.40235e-08, No Iterations 0
time step continuity errors : sum local = 7.94267e-08, global = 1.09346e-15, cumulative = 2.09415e-13
DICPCG:  Solving for p, Initial residual = 0.000502239, Final residual = 2.41199e-19, No Iterations 1
DICPCG:  Solving for p, Initial residual = 1.05325e-08, Final residual = 1.05325e-08, No Iterations 0
time step continuity errors : sum local = 3.48119e-08, global = -1.75134e-15, cumulative = 2.07663e-13
DICPCG:  Solving for p, Initial residual = 0.000274097, Final residual = 2.70914e-19, No Iterations 1
DICPCG:  Solving for p, Initial residual = 8.17192e-09, Final residual = 8.17192e-09, No Iterations 0
time step continuity errors : sum local = 2.70152e-08, global = -5.41122e-16, cumulative = 2.07122e-13
DICPCG:  Solving for p, Initial residual = 0.000178837, Final residual = 8.48506e-20, No Iterations 1
DICPCG:  Solving for p, Initial residual = 3.64272e-09, Final residual = 3.64272e-09, No Iterations 0
time step continuity errors : sum local = 1.20436e-08, global = -1.32796e-15, cumulative = 2.05794e-13
PIMPLE: iteration 4
smoothSolver:  Solving for Ux, Initial residual = 0.00995419, Final residual = 0.000340714, No Iterations 3
smoothSolver:  Solving for Uy, Initial residual = 0.0409475, Final residual = 0.00134359, No Iterations 3
smoothSolver:  Solving for Uz, Initial residual = 0.299802, Final residual = 0.0150265, No Iterations 2
DICPCG:  Solving for p, Initial residual = 0.0282291, Final residual = 2.11283e-15, No Iterations 1
DICPCG:  Solving for p, Initial residual = 1.7046e-06, Final residual = 5.21719e-20, No Iterations 1
time step continuity errors : sum local = 1.45207e-14, global = 1.58247e-15, cumulative = 2.07377e-13
DICPCG:  Solving for p, Initial residual = 0.0136548, Final residual = 3.96822e-16, No Iterations 1
DICPCG:  Solving for p, Initial residual = 5.96624e-07, Final residual = 5.96624e-07, No Iterations 0
time step continuity errors : sum local = 1.93096e-06, global = -5.99872e-16, cumulative = 2.06777e-13
DICPCG:  Solving for p, Initial residual = 0.00539097, Final residual = 4.52951e-18, No Iterations 1
DICPCG:  Solving for p, Initial residual = 1.55572e-07, Final residual = 1.55572e-07, No Iterations 0
time step continuity errors : sum local = 5.01729e-07, global = 1.91549e-16, cumulative = 2.06968e-13
DICPCG:  Solving for p, Initial residual = 0.00243549, Final residual = 4.30586e-18, No Iterations 1
DICPCG:  Solving for p, Initial residual = 4.31193e-08, Final residual = 4.31193e-08, No Iterations 0
time step continuity errors : sum local = 1.39001e-07, global = -3.38104e-15, cumulative = 2.03587e-13
DICPCG:  Solving for p, Initial residual = 0.00133729, Final residual = 1.3096e-18, No Iterations 1
DICPCG:  Solving for p, Initial residual = 2.30846e-08, Final residual = 2.30846e-08, No Iterations 0
time step continuity errors : sum local = 7.4457e-08, global = -1.68545e-15, cumulative = 2.01902e-13
DICPCG:  Solving for p, Initial residual = 0.000770252, Final residual = 3.59561e-19, No Iterations 1
DICPCG:  Solving for p, Initial residual = 1.10759e-08, Final residual = 1.10759e-08, No Iterations 0
time step continuity errors : sum local = 3.57376e-08, global = 2.1904e-15, cumulative = 2.04092e-13
DICPCG:  Solving for p, Initial residual = 0.000449497, Final residual = 2.87383e-19, No Iterations 1
DICPCG:  Solving for p, Initial residual = 6.83212e-09, Final residual = 6.83212e-09, No Iterations 0
time step continuity errors : sum local = 2.20418e-08, global = 2.5499e-15, cumulative = 2.06642e-13
DICPCG:  Solving for p, Initial residual = 0.000275022, Final residual = 1.18246e-19, No Iterations 1
DICPCG:  Solving for p, Initial residual = 3.84354e-09, Final residual = 3.84354e-09, No Iterations 0
time step continuity errors : sum local = 1.23982e-08, global = 4.90397e-16, cumulative = 2.07132e-13
DICPCG:  Solving for p, Initial residual = 0.000162238, Final residual = 8.85404e-20, No Iterations 1
DICPCG:  Solving for p, Initial residual = 2.43492e-09, Final residual = 2.43492e-09, No Iterations 0
time step continuity errors : sum local = 7.85465e-09, global = 1.15752e-15, cumulative = 2.0829e-13
DICPCG:  Solving for p, Initial residual = 0.000102327, Final residual = 3.43122e-20, No Iterations 1
DICPCG:  Solving for p, Initial residual = 1.42299e-09, Final residual = 1.42299e-09, No Iterations 0
time step continuity errors : sum local = 4.59056e-09, global = 6.12902e-16, cumulative = 2.08903e-13
PIMPLE: iteration 5
smoothSolver:  Solving for Ux, Initial residual = 0.00749886, Final residual = 0.000726784, No Iterations 2
smoothSolver:  Solving for Uy, Initial residual = 0.0392723, Final residual = 0.00128193, No Iterations 3
smoothSolver:  Solving for Uz, Initial residual = 0.277928, Final residual = 0.0156146, No Iterations 2
DICPCG:  Solving for p, Initial residual = 0.0194849, Final residual = 1.08434e-15, No Iterations 1
DICPCG:  Solving for p, Initial residual = 1.26047e-06, Final residual = 2.16603e-20, No Iterations 1
time step continuity errors : sum local = 1.26679e-14, global = -7.42033e-16, cumulative = 2.08161e-13
DICPCG:  Solving for p, Initial residual = 0.00654379, Final residual = 2.35858e-16, No Iterations 1
DICPCG:  Solving for p, Initial residual = 5.12591e-07, Final residual = 5.12591e-07, No Iterations 0
time step continuity errors : sum local = 1.63575e-06, global = -1.89399e-15, cumulative = 2.06267e-13
DICPCG:  Solving for p, Initial residual = 0.00285897, Final residual = 2.7828e-18, No Iterations 1
DICPCG:  Solving for p, Initial residual = 1.33476e-07, Final residual = 1.33476e-07, No Iterations 0
time step continuity errors : sum local = 4.2546e-07, global = -8.63303e-16, cumulative = 2.05404e-13
DICPCG:  Solving for p, Initial residual = 0.00126261, Final residual = 3.00734e-18, No Iterations 1
DICPCG:  Solving for p, Initial residual = 5.31887e-08, Final residual = 5.31887e-08, No Iterations 0
time step continuity errors : sum local = 1.69552e-07, global = -1.52912e-15, cumulative = 2.03874e-13
DICPCG:  Solving for p, Initial residual = 0.000761371, Final residual = 6.04587e-19, No Iterations 1
DICPCG:  Solving for p, Initial residual = 1.90242e-08, Final residual = 1.90242e-08, No Iterations 0
time step continuity errors : sum local = 6.06433e-08, global = 4.07192e-16, cumulative = 2.04282e-13
DICPCG:  Solving for p, Initial residual = 0.000418804, Final residual = 4.88918e-19, No Iterations 1
DICPCG:  Solving for p, Initial residual = 1.42731e-08, Final residual = 1.42731e-08, No Iterations 0
time step continuity errors : sum local = 4.55017e-08, global = -2.01391e-15, cumulative = 2.02268e-13
DICPCG:  Solving for p, Initial residual = 0.000260772, Final residual = 2.20416e-19, No Iterations 1
DICPCG:  Solving for p, Initial residual = 5.30955e-09, Final residual = 5.30955e-09, No Iterations 0
time step continuity errors : sum local = 1.69272e-08, global = -1.63994e-17, cumulative = 2.02251e-13
DICPCG:  Solving for p, Initial residual = 0.000153326, Final residual = 1.07645e-19, No Iterations 1
DICPCG:  Solving for p, Initial residual = 4.73437e-09, Final residual = 4.73437e-09, No Iterations 0
time step continuity errors : sum local = 1.5093e-08, global = 4.23071e-17, cumulative = 2.02294e-13
DICPCG:  Solving for p, Initial residual = 9.66922e-05, Final residual = 5.85643e-20, No Iterations 1
DICPCG:  Solving for p, Initial residual = 1.88747e-09, Final residual = 1.88747e-09, No Iterations 0
time step continuity errors : sum local = 6.01705e-09, global = 1.67794e-15, cumulative = 2.03972e-13
DICPCG:  Solving for p, Initial residual = 5.81351e-05, Final residual = 2.122e-20, No Iterations 1
DICPCG:  Solving for p, Initial residual = 1.73548e-09, Final residual = 1.73548e-09, No Iterations 0
time step continuity errors : sum local = 5.53259e-09, global = 1.37524e-15, cumulative = 2.05347e-13
PIMPLE: iteration 6
smoothSolver:  Solving for Ux, Initial residual = 0.00561359, Final residual = 0.000182076, No Iterations 3
smoothSolver:  Solving for Uy, Initial residual = 0.0372676, Final residual = 0.00122203, No Iterations 3
smoothSolver:  Solving for Uz, Initial residual = 0.230128, Final residual = 0.0142398, No Iterations 2
DICPCG:  Solving for p, Initial residual = 0.0134454, Final residual = 7.22595e-16, No Iterations 1
DICPCG:  Solving for p, Initial residual = 9.52239e-07, Final residual = 9.52239e-07, No Iterations 0
time step continuity errors : sum local = 3.0449e-06, global = -2.18429e-15, cumulative = 2.03163e-13
DICPCG:  Solving for p, Initial residual = 0.00432806, Final residual = 1.20577e-16, No Iterations 1
DICPCG:  Solving for p, Initial residual = 4.57872e-07, Final residual = 4.57872e-07, No Iterations 0
time step continuity errors : sum local = 1.45226e-06, global = -2.00607e-15, cumulative = 2.01156e-13
DICPCG:  Solving for p, Initial residual = 0.00185234, Final residual = 2.61133e-18, No Iterations 1
DICPCG:  Solving for p, Initial residual = 1.25182e-07, Final residual = 1.25182e-07, No Iterations 0
time step continuity errors : sum local = 3.96663e-07, global = 5.9762e-16, cumulative = 2.01754e-13
DICPCG:  Solving for p, Initial residual = 0.000813926, Final residual = 4.3173e-18, No Iterations 1
DICPCG:  Solving for p, Initial residual = 5.42387e-08, Final residual = 5.42387e-08, No Iterations 0
time step continuity errors : sum local = 1.71885e-07, global = 1.13414e-16, cumulative = 2.01868e-13
DICPCG:  Solving for p, Initial residual = 0.000519014, Final residual = 3.69235e-19, No Iterations 1
DICPCG:  Solving for p, Initial residual = 1.82213e-08, Final residual = 1.82213e-08, No Iterations 0
time step continuity errors : sum local = 5.7744e-08, global = 3.92764e-15, cumulative = 2.05795e-13
DICPCG:  Solving for p, Initial residual = 0.000274025, Final residual = 3.86997e-19, No Iterations 1
DICPCG:  Solving for p, Initial residual = 1.49066e-08, Final residual = 1.49066e-08, No Iterations 0
time step continuity errors : sum local = 4.72394e-08, global = 7.16518e-16, cumulative = 2.06512e-13
DICPCG:  Solving for p, Initial residual = 0.000178849, Final residual = 1.35417e-19, No Iterations 1
DICPCG:  Solving for p, Initial residual = 5.11035e-09, Final residual = 5.11035e-09, No Iterations 0
time step continuity errors : sum local = 1.61955e-08, global = 2.41294e-15, cumulative = 2.08925e-13
DICPCG:  Solving for p, Initial residual = 0.000101167, Final residual = 1.17679e-19, No Iterations 1
DICPCG:  Solving for p, Initial residual = 4.94834e-09, Final residual = 4.94834e-09, No Iterations 0
time step continuity errors : sum local = 1.56821e-08, global = 4.59161e-15, cumulative = 2.13516e-13
DICPCG:  Solving for p, Initial residual = 6.60472e-05, Final residual = 4.24848e-20, No Iterations 1
DICPCG:  Solving for p, Initial residual = 1.8068e-09, Final residual = 1.8068e-09, No Iterations 0
time step continuity errors : sum local = 5.72593e-09, global = -1.09741e-15, cumulative = 2.12419e-13
DICPCG:  Solving for p, Initial residual = 3.86057e-05, Final residual = 1.88871e-20, No Iterations 1
DICPCG:  Solving for p, Initial residual = 1.79676e-09, Final residual = 1.79676e-09, No Iterations 0
time step continuity errors : sum local = 5.6941e-09, global = -2.67291e-15, cumulative = 2.09746e-13
PIMPLE: iteration 7
smoothSolver:  Solving for Ux, Initial residual = 0.00444906, Final residual = 5.34201e-06, No Iterations 6
smoothSolver:  Solving for Uy, Initial residual = 0.0356033, Final residual = 3.76765e-06, No Iterations 8
smoothSolver:  Solving for Uz, Initial residual = 0.187602, Final residual = 3.73001e-06, No Iterations 9
DICPCG:  Solving for p, Initial residual = 0.0100153, Final residual = 2.69623e-16, No Iterations 1
DICPCG:  Solving for p, Initial residual = 7.14383e-07, Final residual = 7.14383e-07, No Iterations 0
time step continuity errors : sum local = 2.26381e-06, global = -2.8667e-15, cumulative = 2.06879e-13
DICPCG:  Solving for p, Initial residual = 0.00276544, Final residual = 5.8956e-17, No Iterations 1
DICPCG:  Solving for p, Initial residual = 3.51397e-07, Final residual = 3.51397e-07, No Iterations 0
time step continuity errors : sum local = 1.10915e-06, global = 1.7921e-15, cumulative = 2.08671e-13
DICPCG:  Solving for p, Initial residual = 0.00108721, Final residual = 2.07885e-18, No Iterations 1
DICPCG:  Solving for p, Initial residual = 9.84032e-08, Final residual = 9.84032e-08, No Iterations 0
time step continuity errors : sum local = 3.10411e-07, global = 2.51888e-15, cumulative = 2.1119e-13
DICPCG:  Solving for p, Initial residual = 0.000504144, Final residual = 1.03943e-18, No Iterations 1
DICPCG:  Solving for p, Initial residual = 4.27623e-08, Final residual = 4.27623e-08, No Iterations 0
time step continuity errors : sum local = 1.34891e-07, global = 5.60561e-15, cumulative = 2.16796e-13
DICPCG:  Solving for p, Initial residual = 0.000309914, Final residual = 3.65116e-19, No Iterations 1
DICPCG:  Solving for p, Initial residual = 1.43424e-08, Final residual = 1.43424e-08, No Iterations 0
time step continuity errors : sum local = 4.52408e-08, global = -1.23343e-15, cumulative = 2.15562e-13
DICPCG:  Solving for p, Initial residual = 0.000166865, Final residual = 2.0728e-19, No Iterations 1
DICPCG:  Solving for p, Initial residual = 1.1699e-08, Final residual = 1.1699e-08, No Iterations 0
time step continuity errors : sum local = 3.69034e-08, global = 1.91374e-15, cumulative = 2.17476e-13
DICPCG:  Solving for p, Initial residual = 0.000106657, Final residual = 1.05912e-19, No Iterations 1
DICPCG:  Solving for p, Initial residual = 4.10042e-09, Final residual = 4.10042e-09, No Iterations 0
time step continuity errors : sum local = 1.29348e-08, global = -1.59673e-15, cumulative = 2.15879e-13
DICPCG:  Solving for p, Initial residual = 6.15067e-05, Final residual = 6.21532e-20, No Iterations 1
DICPCG:  Solving for p, Initial residual = 3.86876e-09, Final residual = 3.86876e-09, No Iterations 0
time step continuity errors : sum local = 1.22039e-08, global = -1.59683e-15, cumulative = 2.14283e-13
DICPCG:  Solving for p, Initial residual = 4.00019e-05, Final residual = 1.90664e-20, No Iterations 1
DICPCG:  Solving for p, Initial residual = 1.44868e-09, Final residual = 1.44868e-09, No Iterations 0
time step continuity errors : sum local = 4.56976e-09, global = 9.45046e-16, cumulative = 2.15228e-13
DICPCG:  Solving for p, Initial residual = 2.34598e-05, Final residual = 1.59032e-20, No Iterations 1
DICPCG:  Solving for p, Initial residual = 1.40417e-09, Final residual = 1.40417e-09, No Iterations 0
time step continuity errors : sum local = 4.42936e-09, global = -1.11277e-15, cumulative = 2.14115e-13
ExecutionTime = 0.43 s  ClockTime = 2 s

surfaceRegion PRESSURE_upWire write:
    none(upWire) of p = 0

surfaceRegion TRACTION_upWire write:
    none(upWire) of wallShearStress = (0 0 0)

surfaceRegion PRESSURE_deformWire write:
    none(deformWire) of p = 0

surfaceRegion TRACTION_deformWire write:
    none(deformWire) of wallShearStress = (0 0 0)

surfaceRegion PRESSURE_finalWire write:
    none(finalWire) of p = 0

surfaceRegion TRACTION_finalWire write:
    none(finalWire) of wallShearStress = (0 0 0)

I get past the save

