/*---------------------------------------------------------------------------*\
| =========                 |                                                 |
| \\      /  F ield         | OpenFOAM: The Open Source CFD Toolbox           |
|  \\    /   O peration     | Version:  4.1                                   |
|   \\  /    A nd           | Web:      www.OpenFOAM.org                      |
|    \\/     M anipulation  |                                                 |
\*---------------------------------------------------------------------------*/
Build  : 4.1
Exec   : CoCoNuT_pimpleFoam
Date   : Dec 23 2020
Time   : 15:59:14
Host   : "cfdclu27.ugent.be"
PID    : 31360
Case   : /lusers/temp/mathieu/PycharmProjects/coconut/test_examples/wireDrawing_OpenFoam_abaqus6/CFD
nProcs : 1
sigFpe : Enabling floating point exception trapping (FOAM_SIGFPE).
fileModificationChecking : Monitoring run-time modified files using timeStampMaster
allowSystemOperations : Allowing user-supplied system call operations

// * * * * * * * * * * * * * * * * * * * * * * * * * * * * * * * * * * * * * //
Create time

Create mesh for time = 0.000000

Selecting dynamicFvMesh dynamicMotionSolverFvMesh
Selecting motion solver: displacementLaplacian
Selecting motion diffusion: directional

PIMPLE: no residual control data found. Calculations will employ 5 corrector loops

Reading field p

Reading field U

Reading/calculating face flux field phi

Selecting incompressible transport model Newtonian
Selecting turbulence model type laminar
No MRF models present

Reading/calculating face velocity Uf

No finite volume options present

Courant Number mean: 7.64274e-06 max: 0.00013057
surfaceRegion PRESSURE_upWire:
    total faces  = 30
    total area   = 6.87603e-08


wallShearStress wallShearStress:
    processing all wall patches

surfaceRegion TRACTION_upWire:
    total faces  = 30
    total area   = 6.87603e-08


surfaceRegion PRESSURE_deformWire:
    total faces  = 60
    total area   = 1.18506e-07


surfaceRegion TRACTION_deformWire:
    total faces  = 60
    total area   = 1.18506e-07


surfaceRegion PRESSURE_finalWire:
    total faces  = 15
    total area   = 2.81781e-08


surfaceRegion TRACTION_finalWire:
    total faces  = 15
    total area   = 2.81781e-08


Courant Number mean: 7.64274e-06 max: 0.00013057
0.000000

Time = 0.000001

Reading pointDisplacement

prev_runTime0.000000
Reading pointDisplacement

prev_runTime0.000000
Reading pointDisplacement

prev_runTime0.000000
GAMG:  Solving for cellDisplacementx, Initial residual = 1, Final residual = 2.20976e-07, No Iterations 3
GAMG:  Solving for cellDisplacementy, Initial residual = 1, Final residual = 1.91191e-07, No Iterations 3
GAMG:  Solving for cellDisplacementz, Initial residual = 0, Final residual = 0, No Iterations 0
DICPCG:  Solving for pcorr, Initial residual = 1, Final residual = 0.00970389, No Iterations 73
DICPCG:  Solving for pcorr, Initial residual = 0.323185, Final residual = 0.00746421, No Iterations 2
time step continuity errors : sum local = 0.00443516, global = -2.74785e-05, cumulative = -2.74785e-05
PIMPLE: iteration 1
smoothSolver:  Solving for Ux, Initial residual = 1, Final residual = 0.0332575, No Iterations 2
smoothSolver:  Solving for Uy, Initial residual = 1, Final residual = 0.0339887, No Iterations 2
smoothSolver:  Solving for Uz, Initial residual = 0.952075, Final residual = 0.0886957, No Iterations 1
DICPCG:  Solving for p, Initial residual = 1, Final residual = 0.0481028, No Iterations 62
DICPCG:  Solving for p, Initial residual = 0.00713467, Final residual = 0.000195153, No Iterations 2
time step continuity errors : sum local = 0.00235103, global = -3.52085e-05, cumulative = -6.2687e-05
DICPCG:  Solving for p, Initial residual = 0.00304616, Final residual = 0.000145945, No Iterations 40
DICPCG:  Solving for p, Initial residual = 0.00317332, Final residual = 7.88078e-05, No Iterations 2
time step continuity errors : sum local = 0.000745903, global = 5.97725e-05, cumulative = -2.91451e-06
DICPCG:  Solving for p, Initial residual = 0.00076614, Final residual = 3.57866e-05, No Iterations 50
DICPCG:  Solving for p, Initial residual = 0.00252979, Final residual = 4.1732e-05, No Iterations 2
time step continuity errors : sum local = 0.000290486, global = 2.27873e-05, cumulative = 1.98728e-05
DICPCG:  Solving for p, Initial residual = 0.00112088, Final residual = 4.20389e-05, No Iterations 24
DICPCG:  Solving for p, Initial residual = 0.000991941, Final residual = 4.63322e-05, No Iterations 2
time step continuity errors : sum local = 0.000319162, global = 1.42859e-05, cumulative = 3.41588e-05
DICPCG:  Solving for p, Initial residual = 0.000375492, Final residual = 1.57282e-05, No Iterations 24
DICPCG:  Solving for p, Initial residual = 0.000451165, Final residual = 2.1256e-05, No Iterations 3
time step continuity errors : sum local = 0.000145932, global = -3.4043e-06, cumulative = 3.07544e-05
DICPCG:  Solving for p, Initial residual = 0.00018671, Final residual = 9.20309e-06, No Iterations 3
DICPCG:  Solving for p, Initial residual = 6.65215e-05, Final residual = 3.22832e-06, No Iterations 51
time step continuity errors : sum local = 2.21562e-05, global = -9.95158e-07, cumulative = 2.97593e-05
DICPCG:  Solving for p, Initial residual = 0.000115932, Final residual = 3.97772e-06, No Iterations 48
DICPCG:  Solving for p, Initial residual = 9.2793e-05, Final residual = 1.90631e-06, No Iterations 2
time step continuity errors : sum local = 1.30512e-05, global = -4.27686e-08, cumulative = 2.97165e-05
DICPCG:  Solving for p, Initial residual = 3.21273e-05, Final residual = 1.37175e-06, No Iterations 19
DICPCG:  Solving for p, Initial residual = 2.27996e-05, Final residual = 1.09907e-06, No Iterations 5
time step continuity errors : sum local = 7.52818e-06, global = -1.47689e-06, cumulative = 2.82396e-05
DICPCG:  Solving for p, Initial residual = 1.78882e-05, Final residual = 9.10663e-07, No Iterations 5
DICPCG:  Solving for p, Initial residual = 8.22749e-06, Final residual = 7.77595e-07, No Iterations 2
time step continuity errors : sum local = 5.32663e-06, global = -1.83904e-06, cumulative = 2.64006e-05
DICPCG:  Solving for p, Initial residual = 6.90575e-06, Final residual = 8.52272e-07, No Iterations 3
DICPCG:  Solving for p, Initial residual = 4.54908e-06, Final residual = 6.18289e-07, No Iterations 1
time step continuity errors : sum local = 4.23543e-06, global = -1.74105e-06, cumulative = 2.46595e-05
PIMPLE: iteration 2
smoothSolver:  Solving for Ux, Initial residual = 0.0128319, Final residual = 0.000721135, No Iterations 1
smoothSolver:  Solving for Uy, Initial residual = 0.142117, Final residual = 0.00489133, No Iterations 2
smoothSolver:  Solving for Uz, Initial residual = 0.0466704, Final residual = 0.00427472, No Iterations 1
DICPCG:  Solving for p, Initial residual = 0.00152974, Final residual = 4.5034e-05, No Iterations 1
DICPCG:  Solving for p, Initial residual = 0.000256178, Final residual = 1.05468e-05, No Iterations 4
time step continuity errors : sum local = 7.22203e-05, global = -3.31357e-07, cumulative = 2.43282e-05
DICPCG:  Solving for p, Initial residual = 0.000485625, Final residual = 1.11992e-05, No Iterations 2
DICPCG:  Solving for p, Initial residual = 8.6571e-05, Final residual = 2.90726e-06, No Iterations 49
time step continuity errors : sum local = 1.99051e-05, global = -1.13404e-06, cumulative = 2.31941e-05
DICPCG:  Solving for p, Initial residual = 0.000183517, Final residual = 3.44306e-06, No Iterations 2
DICPCG:  Solving for p, Initial residual = 2.67873e-05, Final residual = 1.26983e-06, No Iterations 32
time step continuity errors : sum local = 8.76308e-06, global = -4.70194e-07, cumulative = 2.2724e-05
DICPCG:  Solving for p, Initial residual = 4.98416e-05, Final residual = 9.45802e-07, No Iterations 2
DICPCG:  Solving for p, Initial residual = 3.17851e-06, Final residual = 8.86229e-07, No Iterations 3
time step continuity errors : sum local = 6.11061e-06, global = 1.36105e-07, cumulative = 2.28601e-05
DICPCG:  Solving for p, Initial residual = 2.28489e-05, Final residual = 1.05426e-06, No Iterations 1
DICPCG:  Solving for p, Initial residual = 4.04022e-06, Final residual = 8.70048e-07, No Iterations 2
time step continuity errors : sum local = 5.99906e-06, global = 8.55698e-07, cumulative = 2.37158e-05
DICPCG:  Solving for p, Initial residual = 7.41612e-06, Final residual = 6.71264e-07, No Iterations 2
DICPCG:  Solving for p, Initial residual = 8.90438e-07, Final residual = 8.90438e-07, No Iterations 0
time step continuity errors : sum local = 6.13958e-06, global = 1.3013e-06, cumulative = 2.50171e-05
DICPCG:  Solving for p, Initial residual = 4.87377e-06, Final residual = 5.96829e-07, No Iterations 1
DICPCG:  Solving for p, Initial residual = 1.47807e-06, Final residual = 5.59029e-07, No Iterations 1
time step continuity errors : sum local = 3.85451e-06, global = 1.61758e-06, cumulative = 2.66346e-05
DICPCG:  Solving for p, Initial residual = 2.42268e-06, Final residual = 5.96869e-07, No Iterations 1
DICPCG:  Solving for p, Initial residual = 1.17359e-06, Final residual = 6.57865e-07, No Iterations 1
time step continuity errors : sum local = 4.53596e-06, global = 1.78393e-06, cumulative = 2.84186e-05
DICPCG:  Solving for p, Initial residual = 1.81306e-06, Final residual = 7.41303e-07, No Iterations 1
DICPCG:  Solving for p, Initial residual = 1.2625e-06, Final residual = 6.44345e-07, No Iterations 1
time step continuity errors : sum local = 4.44273e-06, global = 1.86423e-06, cumulative = 3.02828e-05
DICPCG:  Solving for p, Initial residual = 1.17944e-06, Final residual = 6.11337e-07, No Iterations 1
DICPCG:  Solving for p, Initial residual = 9.84255e-07, Final residual = 9.84255e-07, No Iterations 0
time step continuity errors : sum local = 6.78637e-06, global = 1.89158e-06, cumulative = 3.21744e-05
PIMPLE: iteration 3
smoothSolver:  Solving for Ux, Initial residual = 0.000835499, Final residual = 3.9175e-05, No Iterations 1
smoothSolver:  Solving for Uy, Initial residual = 0.0226234, Final residual = 0.00178677, No Iterations 1
smoothSolver:  Solving for Uz, Initial residual = 0.0634953, Final residual = 0.00156586, No Iterations 2
DICPCG:  Solving for p, Initial residual = 0.000175965, Final residual = 4.74872e-06, No Iterations 1
DICPCG:  Solving for p, Initial residual = 2.0903e-05, Final residual = 9.54112e-07, No Iterations 45
time step continuity errors : sum local = 6.57907e-06, global = 7.88351e-07, cumulative = 3.29627e-05
DICPCG:  Solving for p, Initial residual = 5.5767e-05, Final residual = 9.46197e-07, No Iterations 2
DICPCG:  Solving for p, Initial residual = 5.73218e-06, Final residual = 7.96353e-07, No Iterations 3
time step continuity errors : sum local = 5.4708e-06, global = 2.71287e-07, cumulative = 3.3234e-05
DICPCG:  Solving for p, Initial residual = 1.34677e-05, Final residual = 5.16787e-07, No Iterations 2
DICPCG:  Solving for p, Initial residual = 1.6834e-06, Final residual = 4.6314e-07, No Iterations 1
time step continuity errors : sum local = 3.18171e-06, global = -7.3239e-08, cumulative = 3.31608e-05
DICPCG:  Solving for p, Initial residual = 3.35727e-06, Final residual = 5.78256e-07, No Iterations 1
DICPCG:  Solving for p, Initial residual = 1.07158e-06, Final residual = 6.06814e-07, No Iterations 1
time step continuity errors : sum local = 4.16877e-06, global = -2.88419e-07, cumulative = 3.28723e-05
DICPCG:  Solving for p, Initial residual = 1.59425e-06, Final residual = 5.87206e-07, No Iterations 1
DICPCG:  Solving for p, Initial residual = 9.90463e-07, Final residual = 9.90463e-07, No Iterations 0
time step continuity errors : sum local = 6.80445e-06, global = -4.32679e-07, cumulative = 3.24397e-05
DICPCG:  Solving for p, Initial residual = 1.12362e-06, Final residual = 5.80034e-07, No Iterations 1
DICPCG:  Solving for p, Initial residual = 9.35278e-07, Final residual = 9.35278e-07, No Iterations 0
time step continuity errors : sum local = 6.42534e-06, global = -5.26693e-07, cumulative = 3.1913e-05
DICPCG:  Solving for p, Initial residual = 1.00757e-06, Final residual = 4.41349e-07, No Iterations 1
DICPCG:  Solving for p, Initial residual = 8.15791e-07, Final residual = 8.15791e-07, No Iterations 0
time step continuity errors : sum local = 5.60449e-06, global = -5.90481e-07, cumulative = 3.13225e-05
DICPCG:  Solving for p, Initial residual = 8.41697e-07, Final residual = 8.41697e-07, No Iterations 0
DICPCG:  Solving for p, Initial residual = 8.41697e-07, Final residual = 8.41697e-07, No Iterations 0
time step continuity errors : sum local = 5.78246e-06, global = -6.27272e-07, cumulative = 3.06952e-05
DICPCG:  Solving for p, Initial residual = 8.45603e-07, Final residual = 8.45603e-07, No Iterations 0
DICPCG:  Solving for p, Initial residual = 8.45603e-07, Final residual = 8.45603e-07, No Iterations 0
time step continuity errors : sum local = 5.8093e-06, global = -6.50012e-07, cumulative = 3.00452e-05
DICPCG:  Solving for p, Initial residual = 8.65521e-07, Final residual = 8.65521e-07, No Iterations 0
DICPCG:  Solving for p, Initial residual = 8.65521e-07, Final residual = 8.65521e-07, No Iterations 0
time step continuity errors : sum local = 5.94613e-06, global = -6.63607e-07, cumulative = 2.93816e-05
PIMPLE: iteration 4
smoothSolver:  Solving for Ux, Initial residual = 6.31891e-05, Final residual = 5.68838e-06, No Iterations 1
smoothSolver:  Solving for Uy, Initial residual = 0.00372423, Final residual = 0.000330536, No Iterations 1
smoothSolver:  Solving for Uz, Initial residual = 0.0108339, Final residual = 0.000264236, No Iterations 2
DICPCG:  Solving for p, Initial residual = 2.77145e-05, Final residual = 8.07394e-07, No Iterations 1
DICPCG:  Solving for p, Initial residual = 1.26175e-06, Final residual = 5.38234e-07, No Iterations 1
time step continuity errors : sum local = 3.69768e-06, global = -5.44302e-07, cumulative = 2.88373e-05
DICPCG:  Solving for p, Initial residual = 2.75203e-06, Final residual = 8.84961e-07, No Iterations 1
DICPCG:  Solving for p, Initial residual = 1.12718e-06, Final residual = 4.91226e-07, No Iterations 1
time step continuity errors : sum local = 3.37475e-06, global = -6.00349e-07, cumulative = 2.8237e-05
DICPCG:  Solving for p, Initial residual = 1.05509e-06, Final residual = 5.00287e-07, No Iterations 1
DICPCG:  Solving for p, Initial residual = 7.47292e-07, Final residual = 7.47292e-07, No Iterations 0
time step continuity errors : sum local = 5.13397e-06, global = -6.32022e-07, cumulative = 2.76049e-05
DICPCG:  Solving for p, Initial residual = 8.28143e-07, Final residual = 8.28143e-07, No Iterations 0
DICPCG:  Solving for p, Initial residual = 8.28143e-07, Final residual = 8.28143e-07, No Iterations 0
time step continuity errors : sum local = 5.68942e-06, global = -6.52071e-07, cumulative = 2.69529e-05
DICPCG:  Solving for p, Initial residual = 8.51194e-07, Final residual = 8.51194e-07, No Iterations 0
DICPCG:  Solving for p, Initial residual = 8.51194e-07, Final residual = 8.51194e-07, No Iterations 0
time step continuity errors : sum local = 5.84778e-06, global = -6.62851e-07, cumulative = 2.629e-05
DICPCG:  Solving for p, Initial residual = 8.85671e-07, Final residual = 8.85671e-07, No Iterations 0
DICPCG:  Solving for p, Initial residual = 8.85671e-07, Final residual = 8.85671e-07, No Iterations 0
time step continuity errors : sum local = 6.08465e-06, global = -6.69556e-07, cumulative = 2.56205e-05
DICPCG:  Solving for p, Initial residual = 8.94143e-07, Final residual = 8.94143e-07, No Iterations 0
DICPCG:  Solving for p, Initial residual = 8.94143e-07, Final residual = 8.94143e-07, No Iterations 0
time step continuity errors : sum local = 6.14285e-06, global = -6.7327e-07, cumulative = 2.49472e-05
DICPCG:  Solving for p, Initial residual = 9.05536e-07, Final residual = 9.05536e-07, No Iterations 0
DICPCG:  Solving for p, Initial residual = 9.05536e-07, Final residual = 9.05536e-07, No Iterations 0
time step continuity errors : sum local = 6.22112e-06, global = -6.75579e-07, cumulative = 2.42716e-05
DICPCG:  Solving for p, Initial residual = 9.08406e-07, Final residual = 9.08406e-07, No Iterations 0
DICPCG:  Solving for p, Initial residual = 9.08406e-07, Final residual = 9.08406e-07, No Iterations 0
time step continuity errors : sum local = 6.24083e-06, global = -6.7688e-07, cumulative = 2.35947e-05
DICPCG:  Solving for p, Initial residual = 9.12122e-07, Final residual = 9.12122e-07, No Iterations 0
DICPCG:  Solving for p, Initial residual = 9.12122e-07, Final residual = 9.12122e-07, No Iterations 0
time step continuity errors : sum local = 6.26636e-06, global = -6.7769e-07, cumulative = 2.2917e-05
PIMPLE: iteration 5
smoothSolver:  Solving for Ux, Initial residual = 9.15324e-06, Final residual = 9.15324e-06, No Iterations 0
smoothSolver:  Solving for Uy, Initial residual = 0.00068175, Final residual = 3.07217e-06, No Iterations 3
smoothSolver:  Solving for Uz, Initial residual = 0.00341259, Final residual = 2.87821e-06, No Iterations 4
DICPCG:  Solving for p, Initial residual = 5.53451e-06, Final residual = 8.91622e-07, No Iterations 37
DICPCG:  Solving for p, Initial residual = 1.7066e-05, Final residual = 3.7178e-07, No Iterations 2
time step continuity errors : sum local = 2.56211e-06, global = 3.92178e-07, cumulative = 2.33092e-05
DICPCG:  Solving for p, Initial residual = 4.55731e-06, Final residual = 5.38762e-07, No Iterations 2
DICPCG:  Solving for p, Initial residual = 1.68221e-06, Final residual = 7.45765e-07, No Iterations 1
time step continuity errors : sum local = 5.13943e-06, global = 9.59042e-07, cumulative = 2.42683e-05
DICPCG:  Solving for p, Initial residual = 1.06363e-06, Final residual = 5.38572e-07, No Iterations 1
DICPCG:  Solving for p, Initial residual = 1.01499e-06, Final residual = 5.4078e-07, No Iterations 1
time step continuity errors : sum local = 3.72677e-06, global = 1.28142e-06, cumulative = 2.55497e-05
DICPCG:  Solving for p, Initial residual = 8.10926e-07, Final residual = 8.10926e-07, No Iterations 0
DICPCG:  Solving for p, Initial residual = 8.10926e-07, Final residual = 8.10926e-07, No Iterations 0
time step continuity errors : sum local = 5.58847e-06, global = 1.46519e-06, cumulative = 2.70149e-05
DICPCG:  Solving for p, Initial residual = 8.53037e-07, Final residual = 8.53037e-07, No Iterations 0
DICPCG:  Solving for p, Initial residual = 8.53037e-07, Final residual = 8.53037e-07, No Iterations 0
time step continuity errors : sum local = 5.87867e-06, global = 1.578e-06, cumulative = 2.85929e-05
DICPCG:  Solving for p, Initial residual = 9.14074e-07, Final residual = 9.14074e-07, No Iterations 0
DICPCG:  Solving for p, Initial residual = 9.14074e-07, Final residual = 9.14074e-07, No Iterations 0
time step continuity errors : sum local = 6.2993e-06, global = 1.64617e-06, cumulative = 3.0239e-05
DICPCG:  Solving for p, Initial residual = 9.3041e-07, Final residual = 9.3041e-07, No Iterations 0
DICPCG:  Solving for p, Initial residual = 9.3041e-07, Final residual = 9.3041e-07, No Iterations 0
time step continuity errors : sum local = 6.41189e-06, global = 1.68832e-06, cumulative = 3.19273e-05
DICPCG:  Solving for p, Initial residual = 9.52274e-07, Final residual = 9.52274e-07, No Iterations 0
DICPCG:  Solving for p, Initial residual = 9.52274e-07, Final residual = 9.52274e-07, No Iterations 0
time step continuity errors : sum local = 6.56256e-06, global = 1.71399e-06, cumulative = 3.36413e-05
DICPCG:  Solving for p, Initial residual = 9.57862e-07, Final residual = 9.57862e-07, No Iterations 0
DICPCG:  Solving for p, Initial residual = 9.57862e-07, Final residual = 9.57862e-07, No Iterations 0
time step continuity errors : sum local = 6.60107e-06, global = 1.72993e-06, cumulative = 3.53713e-05
DICPCG:  Solving for p, Initial residual = 9.65302e-07, Final residual = 9.65302e-07, No Iterations 0
DICPCG:  Solving for p, Initial residual = 9.65302e-07, Final residual = 9.65302e-07, No Iterations 0
time step continuity errors : sum local = 6.65234e-06, global = 1.7397e-06, cumulative = 3.7111e-05
ExecutionTime = 0.39 s  ClockTime = 1 s

surfaceRegion PRESSURE_upWire write:
    none(upWire) of p = 0

surfaceRegion TRACTION_upWire write:
    none(upWire) of wallShearStress = (0 0 0)

surfaceRegion PRESSURE_deformWire write:
    none(deformWire) of p = 0

surfaceRegion TRACTION_deformWire write:
    none(deformWire) of wallShearStress = (0 0 0)

surfaceRegion PRESSURE_finalWire write:
    none(finalWire) of p = 0

surfaceRegion TRACTION_finalWire write:
    none(finalWire) of wallShearStress = (0 0 0)

I get past the save

