/*---------------------------------------------------------------------------*\
| =========                 |                                                 |
| \\      /  F ield         | OpenFOAM: The Open Source CFD Toolbox           |
|  \\    /   O peration     | Version:  4.1                                   |
|   \\  /    A nd           | Web:      www.OpenFOAM.org                      |
|    \\/     M anipulation  |                                                 |
\*---------------------------------------------------------------------------*/
Build  : 4.1
Exec   : CoCoNuT_pimpleFoam
Date   : Jan 07 2021
Time   : 14:05:45
Host   : "cfdclu27.ugent.be"
PID    : 22924
Case   : /lusers/temp/mathieu/PycharmProjects/coconut/test_examples/wireDrawing_OpenFoam_abaqus6/CFD
nProcs : 1
sigFpe : Enabling floating point exception trapping (FOAM_SIGFPE).
fileModificationChecking : Monitoring run-time modified files using timeStampMaster
allowSystemOperations : Allowing user-supplied system call operations

// * * * * * * * * * * * * * * * * * * * * * * * * * * * * * * * * * * * * * //
Create time

Create mesh for time = 0.000000

Selecting dynamicFvMesh dynamicMotionSolverFvMesh
Selecting motion solver: displacementLaplacian
Selecting motion diffusion: directional

PIMPLE: no residual control data found. Calculations will employ 7 corrector loops

Reading field p

Reading field U

Reading/calculating face flux field phi

Selecting incompressible transport model Newtonian
Selecting turbulence model type laminar
No MRF models present

Reading/calculating face velocity Uf

No finite volume options present

Courant Number mean: 0.00157672 max: 0.0389911
surfaceRegion PRESSURE_upWire:
    total faces  = 30
    total area   = 5.93839e-08


wallShearStress wallShearStress:
    processing all wall patches

surfaceRegion TRACTION_upWire:
    total faces  = 30
    total area   = 5.93839e-08


surfaceRegion PRESSURE_deformWire:
    total faces  = 60
    total area   = 1.09685e-07


surfaceRegion TRACTION_deformWire:
    total faces  = 60
    total area   = 1.09685e-07


surfaceRegion PRESSURE_finalWire:
    total faces  = 15
    total area   = 2.81781e-08


surfaceRegion TRACTION_finalWire:
    total faces  = 15
    total area   = 2.81781e-08


Courant Number mean: 0.00157672 max: 0.0389911
0.000000

Time = 0.000001

Reading pointDisplacement

prev_runTime0.000000
Reading pointDisplacement

prev_runTime0.000000
Reading pointDisplacement

prev_runTime0.000000
GAMG:  Solving for cellDisplacementx, Initial residual = 0, Final residual = 0, No Iterations 0
GAMG:  Solving for cellDisplacementy, Initial residual = 1, Final residual = 4.7982e-07, No Iterations 4
GAMG:  Solving for cellDisplacementz, Initial residual = 1.27934e-06, Final residual = 1.91803e-09, No Iterations 2
DICPCG:  Solving for pcorr, Initial residual = 1, Final residual = 1.21985e-13, No Iterations 1
DICPCG:  Solving for pcorr, Initial residual = 0.00195173, Final residual = 0.00195173, No Iterations 0
time step continuity errors : sum local = 2.23594, global = 3.73141e-15, cumulative = 3.73141e-15
PIMPLE: iteration 1
smoothSolver:  Solving for Ux, Initial residual = 1, Final residual = 0.0458137, No Iterations 3
smoothSolver:  Solving for Uy, Initial residual = 1, Final residual = 0.0484233, No Iterations 3
smoothSolver:  Solving for Uz, Initial residual = 0.127707, Final residual = 0.0109166, No Iterations 2
DICPCG:  Solving for p, Initial residual = 1, Final residual = 6.45125e-13, No Iterations 1
DICPCG:  Solving for p, Initial residual = 7.85688e-05, Final residual = 5.73706e-18, No Iterations 1
time step continuity errors : sum local = 3.17409e-12, global = -8.17503e-13, cumulative = -8.13772e-13
DICPCG:  Solving for p, Initial residual = 0.000528929, Final residual = 1.33041e-18, No Iterations 1
DICPCG:  Solving for p, Initial residual = 3.94634e-06, Final residual = 1.50686e-19, No Iterations 1
time step continuity errors : sum local = 2.83429e-12, global = -9.87822e-13, cumulative = -1.80159e-12
DICPCG:  Solving for p, Initial residual = 0.000194922, Final residual = 5.1181e-18, No Iterations 1
DICPCG:  Solving for p, Initial residual = 3.13452e-06, Final residual = 2.81264e-19, No Iterations 1
time step continuity errors : sum local = 2.94949e-12, global = -1.0235e-12, cumulative = -2.82509e-12
DICPCG:  Solving for p, Initial residual = 0.000112071, Final residual = 4.84458e-20, No Iterations 1
DICPCG:  Solving for p, Initial residual = 9.25007e-07, Final residual = 9.25007e-07, No Iterations 0
time step continuity errors : sum local = 0.0180245, global = -8.89311e-13, cumulative = -3.71441e-12
DICPCG:  Solving for p, Initial residual = 7.12772e-05, Final residual = 4.80829e-18, No Iterations 1
DICPCG:  Solving for p, Initial residual = 9.11211e-07, Final residual = 9.11211e-07, No Iterations 0
time step continuity errors : sum local = 0.0175975, global = -2.5468e-13, cumulative = -3.96909e-12
DICPCG:  Solving for p, Initial residual = 4.52819e-05, Final residual = 6.70115e-20, No Iterations 1
DICPCG:  Solving for p, Initial residual = 3.6862e-07, Final residual = 3.6862e-07, No Iterations 0
time step continuity errors : sum local = 0.00711542, global = -5.28811e-13, cumulative = -4.4979e-12
DICPCG:  Solving for p, Initial residual = 3.11969e-05, Final residual = 1.31842e-18, No Iterations 1
DICPCG:  Solving for p, Initial residual = 4.81354e-07, Final residual = 4.81354e-07, No Iterations 0
time step continuity errors : sum local = 0.00934188, global = -1.12709e-12, cumulative = -5.62499e-12
DICPCG:  Solving for p, Initial residual = 1.81409e-05, Final residual = 2.54123e-20, No Iterations 1
DICPCG:  Solving for p, Initial residual = 1.73073e-07, Final residual = 1.73073e-07, No Iterations 0
time step continuity errors : sum local = 0.00335961, global = -1.28023e-12, cumulative = -6.90522e-12
DICPCG:  Solving for p, Initial residual = 1.39262e-05, Final residual = 1.19333e-18, No Iterations 1
DICPCG:  Solving for p, Initial residual = 3.19743e-07, Final residual = 3.19743e-07, No Iterations 0
time step continuity errors : sum local = 0.00618232, global = -1.06766e-13, cumulative = -7.01199e-12
DICPCG:  Solving for p, Initial residual = 7.96314e-06, Final residual = 4.05163e-20, No Iterations 1
DICPCG:  Solving for p, Initial residual = 1.02435e-07, Final residual = 1.02435e-07, No Iterations 0
time step continuity errors : sum local = 0.00198031, global = -2.10242e-13, cumulative = -7.22223e-12
PIMPLE: iteration 2
smoothSolver:  Solving for Ux, Initial residual = 0.404687, Final residual = 0.0164419, No Iterations 3
smoothSolver:  Solving for Uy, Initial residual = 0.312817, Final residual = 0.0107058, No Iterations 3
smoothSolver:  Solving for Uz, Initial residual = 0.322683, Final residual = 0.0199999, No Iterations 2
DICPCG:  Solving for p, Initial residual = 0.000636708, Final residual = 9.24568e-17, No Iterations 1
DICPCG:  Solving for p, Initial residual = 0.000143869, Final residual = 1.3699e-17, No Iterations 1
time step continuity errors : sum local = 1.96355e-12, global = -1.3796e-13, cumulative = -7.36019e-12
DICPCG:  Solving for p, Initial residual = 0.000767455, Final residual = 7.9272e-18, No Iterations 1
DICPCG:  Solving for p, Initial residual = 7.97956e-06, Final residual = 1.07016e-18, No Iterations 1
time step continuity errors : sum local = 1.93482e-12, global = 4.47348e-13, cumulative = -6.91284e-12
DICPCG:  Solving for p, Initial residual = 0.000261073, Final residual = 2.58179e-18, No Iterations 1
DICPCG:  Solving for p, Initial residual = 2.38754e-06, Final residual = 1.70205e-19, No Iterations 1
time step continuity errors : sum local = 1.52252e-12, global = 4.03352e-13, cumulative = -6.50949e-12
DICPCG:  Solving for p, Initial residual = 0.000168927, Final residual = 1.25956e-18, No Iterations 1
DICPCG:  Solving for p, Initial residual = 2.12979e-06, Final residual = 3.62264e-19, No Iterations 1
time step continuity errors : sum local = 1.65454e-12, global = 1.47192e-13, cumulative = -6.3623e-12
DICPCG:  Solving for p, Initial residual = 8.93394e-05, Final residual = 2.06845e-19, No Iterations 1
DICPCG:  Solving for p, Initial residual = 5.4836e-07, Final residual = 5.4836e-07, No Iterations 0
time step continuity errors : sum local = 0.0053845, global = 5.04327e-14, cumulative = -6.31186e-12
DICPCG:  Solving for p, Initial residual = 6.56763e-05, Final residual = 5.85405e-19, No Iterations 1
DICPCG:  Solving for p, Initial residual = 8.16498e-07, Final residual = 8.16498e-07, No Iterations 0
time step continuity errors : sum local = 0.00799849, global = 1.96536e-13, cumulative = -6.11533e-12
DICPCG:  Solving for p, Initial residual = 3.93317e-05, Final residual = 2.76617e-19, No Iterations 1
DICPCG:  Solving for p, Initial residual = 4.65113e-07, Final residual = 4.65113e-07, No Iterations 0
time step continuity errors : sum local = 0.00455313, global = 6.20826e-14, cumulative = -6.05325e-12
DICPCG:  Solving for p, Initial residual = 2.94526e-05, Final residual = 3.36798e-19, No Iterations 1
DICPCG:  Solving for p, Initial residual = 4.3317e-07, Final residual = 4.3317e-07, No Iterations 0
time step continuity errors : sum local = 0.00424605, global = 1.1235e-13, cumulative = -5.9409e-12
DICPCG:  Solving for p, Initial residual = 1.84681e-05, Final residual = 1.05897e-19, No Iterations 1
DICPCG:  Solving for p, Initial residual = 3.66257e-07, Final residual = 3.66257e-07, No Iterations 0
time step continuity errors : sum local = 0.00359201, global = 3.47899e-13, cumulative = -5.593e-12
DICPCG:  Solving for p, Initial residual = 1.40271e-05, Final residual = 2.87448e-19, No Iterations 1
DICPCG:  Solving for p, Initial residual = 2.84372e-07, Final residual = 2.84372e-07, No Iterations 0
time step continuity errors : sum local = 0.00278665, global = 5.3853e-13, cumulative = -5.05447e-12
PIMPLE: iteration 3
smoothSolver:  Solving for Ux, Initial residual = 0.0969224, Final residual = 0.00794311, No Iterations 2
smoothSolver:  Solving for Uy, Initial residual = 0.0990858, Final residual = 0.00373309, No Iterations 3
smoothSolver:  Solving for Uz, Initial residual = 0.216117, Final residual = 0.0118648, No Iterations 2
DICPCG:  Solving for p, Initial residual = 0.000369941, Final residual = 5.93272e-18, No Iterations 1
DICPCG:  Solving for p, Initial residual = 2.1036e-05, Final residual = 1.86327e-19, No Iterations 1
time step continuity errors : sum local = 1.55051e-12, global = 9.41717e-14, cumulative = -4.96029e-12
DICPCG:  Solving for p, Initial residual = 0.000261879, Final residual = 1.91042e-18, No Iterations 1
DICPCG:  Solving for p, Initial residual = 1.98346e-06, Final residual = 1.08317e-19, No Iterations 1
time step continuity errors : sum local = 1.25382e-12, global = 1.6994e-13, cumulative = -4.79035e-12
DICPCG:  Solving for p, Initial residual = 9.96934e-05, Final residual = 8.36607e-19, No Iterations 1
DICPCG:  Solving for p, Initial residual = 1.18112e-06, Final residual = 5.01731e-20, No Iterations 1
time step continuity errors : sum local = 1.81594e-12, global = -4.696e-14, cumulative = -4.83731e-12
DICPCG:  Solving for p, Initial residual = 4.78985e-05, Final residual = 1.5564e-19, No Iterations 1
DICPCG:  Solving for p, Initial residual = 5.576e-07, Final residual = 5.576e-07, No Iterations 0
time step continuity errors : sum local = 0.00543525, global = -2.95116e-13, cumulative = -5.13243e-12
DICPCG:  Solving for p, Initial residual = 3.18403e-05, Final residual = 2.70109e-19, No Iterations 1
DICPCG:  Solving for p, Initial residual = 4.71379e-07, Final residual = 4.71379e-07, No Iterations 0
time step continuity errors : sum local = 0.00460015, global = 1.57658e-13, cumulative = -4.97477e-12
DICPCG:  Solving for p, Initial residual = 1.70268e-05, Final residual = 2.48624e-20, No Iterations 1
DICPCG:  Solving for p, Initial residual = 1.69153e-07, Final residual = 1.69153e-07, No Iterations 0
time step continuity errors : sum local = 0.00165057, global = -3.20498e-13, cumulative = -5.29527e-12
DICPCG:  Solving for p, Initial residual = 1.302e-05, Final residual = 1.54175e-19, No Iterations 1
DICPCG:  Solving for p, Initial residual = 2.61854e-07, Final residual = 2.61854e-07, No Iterations 0
time step continuity errors : sum local = 0.00255369, global = 1.06189e-13, cumulative = -5.18908e-12
DICPCG:  Solving for p, Initial residual = 7.65528e-06, Final residual = 1.1395e-20, No Iterations 1
DICPCG:  Solving for p, Initial residual = 6.94614e-08, Final residual = 6.94614e-08, No Iterations 0
time step continuity errors : sum local = 0.00067738, global = -3.64783e-13, cumulative = -5.55386e-12
DICPCG:  Solving for p, Initial residual = 5.93006e-06, Final residual = 1.19935e-19, No Iterations 1
DICPCG:  Solving for p, Initial residual = 1.60695e-07, Final residual = 1.60695e-07, No Iterations 0
time step continuity errors : sum local = 0.00156764, global = -2.81931e-13, cumulative = -5.83579e-12
DICPCG:  Solving for p, Initial residual = 3.61029e-06, Final residual = 2.01091e-20, No Iterations 1
DICPCG:  Solving for p, Initial residual = 4.21036e-08, Final residual = 4.21036e-08, No Iterations 0
time step continuity errors : sum local = 0.000410773, global = -1.08894e-13, cumulative = -5.94469e-12
PIMPLE: iteration 4
smoothSolver:  Solving for Ux, Initial residual = 0.0376357, Final residual = 0.00366381, No Iterations 2
smoothSolver:  Solving for Uy, Initial residual = 0.095975, Final residual = 0.00337177, No Iterations 3
smoothSolver:  Solving for Uz, Initial residual = 0.198763, Final residual = 0.0123872, No Iterations 2
DICPCG:  Solving for p, Initial residual = 0.00020172, Final residual = 6.16898e-18, No Iterations 1
DICPCG:  Solving for p, Initial residual = 1.23711e-05, Final residual = 1.45525e-18, No Iterations 1
time step continuity errors : sum local = 1.94485e-12, global = 5.13741e-13, cumulative = -5.43095e-12
DICPCG:  Solving for p, Initial residual = 0.000112578, Final residual = 1.77038e-18, No Iterations 1
DICPCG:  Solving for p, Initial residual = 1.87248e-06, Final residual = 1.6776e-19, No Iterations 1
time step continuity errors : sum local = 2.06523e-12, global = -1.21303e-13, cumulative = -5.55225e-12
DICPCG:  Solving for p, Initial residual = 6.04558e-05, Final residual = 4.5136e-19, No Iterations 1
DICPCG:  Solving for p, Initial residual = 8.17413e-07, Final residual = 8.17413e-07, No Iterations 0
time step continuity errors : sum local = 0.00749477, global = 6.48294e-13, cumulative = -4.90396e-12
DICPCG:  Solving for p, Initial residual = 3.01129e-05, Final residual = 3.75665e-19, No Iterations 1
DICPCG:  Solving for p, Initial residual = 3.72521e-07, Final residual = 3.72521e-07, No Iterations 0
time step continuity errors : sum local = 0.00341946, global = 5.01319e-13, cumulative = -4.40264e-12
DICPCG:  Solving for p, Initial residual = 1.94814e-05, Final residual = 1.92741e-19, No Iterations 1
DICPCG:  Solving for p, Initial residual = 2.6479e-07, Final residual = 2.6479e-07, No Iterations 0
time step continuity errors : sum local = 0.00243244, global = 4.46759e-13, cumulative = -3.95588e-12
DICPCG:  Solving for p, Initial residual = 1.21392e-05, Final residual = 1.5764e-19, No Iterations 1
DICPCG:  Solving for p, Initial residual = 1.39501e-07, Final residual = 1.39501e-07, No Iterations 0
time step continuity errors : sum local = 0.00128091, global = 4.34045e-14, cumulative = -3.91248e-12
DICPCG:  Solving for p, Initial residual = 7.86606e-06, Final residual = 3.89247e-20, No Iterations 1
DICPCG:  Solving for p, Initial residual = 1.09304e-07, Final residual = 1.09304e-07, No Iterations 0
time step continuity errors : sum local = 0.00100342, global = -1.50797e-14, cumulative = -3.92755e-12
DICPCG:  Solving for p, Initial residual = 5.11947e-06, Final residual = 5.72899e-20, No Iterations 1
DICPCG:  Solving for p, Initial residual = 5.77028e-08, Final residual = 5.77028e-08, No Iterations 0
time step continuity errors : sum local = 0.000529812, global = 3.25056e-13, cumulative = -3.6025e-12
DICPCG:  Solving for p, Initial residual = 3.41658e-06, Final residual = 1.59804e-20, No Iterations 1
DICPCG:  Solving for p, Initial residual = 5.98513e-08, Final residual = 5.98513e-08, No Iterations 0
time step continuity errors : sum local = 0.000549582, global = 5.78634e-13, cumulative = -3.02386e-12
DICPCG:  Solving for p, Initial residual = 2.30342e-06, Final residual = 1.37952e-20, No Iterations 1
DICPCG:  Solving for p, Initial residual = 3.16931e-08, Final residual = 3.16931e-08, No Iterations 0
time step continuity errors : sum local = 0.000290996, global = -3.51538e-13, cumulative = -3.3754e-12
PIMPLE: iteration 5
smoothSolver:  Solving for Ux, Initial residual = 0.0189757, Final residual = 0.00146974, No Iterations 2
smoothSolver:  Solving for Uy, Initial residual = 0.075132, Final residual = 0.0028371, No Iterations 3
smoothSolver:  Solving for Uz, Initial residual = 0.135372, Final residual = 0.00770788, No Iterations 2
DICPCG:  Solving for p, Initial residual = 0.000120348, Final residual = 2.04122e-18, No Iterations 1
DICPCG:  Solving for p, Initial residual = 1.38549e-06, Final residual = 1.61617e-19, No Iterations 1
time step continuity errors : sum local = 1.56714e-12, global = 6.01415e-13, cumulative = -2.77399e-12
DICPCG:  Solving for p, Initial residual = 4.44606e-05, Final residual = 4.91952e-19, No Iterations 1
DICPCG:  Solving for p, Initial residual = 4.48406e-07, Final residual = 4.48406e-07, No Iterations 0
time step continuity errors : sum local = 0.00406605, global = 8.48323e-14, cumulative = -2.68915e-12
DICPCG:  Solving for p, Initial residual = 2.65204e-05, Final residual = 3.10524e-19, No Iterations 1
DICPCG:  Solving for p, Initial residual = 1.46425e-07, Final residual = 1.46425e-07, No Iterations 0
time step continuity errors : sum local = 0.00132644, global = 3.8961e-13, cumulative = -2.29954e-12
DICPCG:  Solving for p, Initial residual = 1.1656e-05, Final residual = 1.20055e-19, No Iterations 1
DICPCG:  Solving for p, Initial residual = 1.20312e-07, Final residual = 1.20312e-07, No Iterations 0
time step continuity errors : sum local = 0.00109036, global = 3.89502e-13, cumulative = -1.91004e-12
DICPCG:  Solving for p, Initial residual = 8.28614e-06, Final residual = 5.15859e-20, No Iterations 1
DICPCG:  Solving for p, Initial residual = 3.16787e-08, Final residual = 3.16787e-08, No Iterations 0
time step continuity errors : sum local = 0.000287155, global = 2.60157e-13, cumulative = -1.64988e-12
DICPCG:  Solving for p, Initial residual = 4.79867e-06, Final residual = 4.08192e-20, No Iterations 1
DICPCG:  Solving for p, Initial residual = 3.94397e-08, Final residual = 3.94397e-08, No Iterations 0
time step continuity errors : sum local = 0.00035745, global = 4.43122e-13, cumulative = -1.20676e-12
DICPCG:  Solving for p, Initial residual = 3.1851e-06, Final residual = 1.51721e-20, No Iterations 1
DICPCG:  Solving for p, Initial residual = 1.04531e-08, Final residual = 1.04531e-08, No Iterations 0
time step continuity errors : sum local = 9.47322e-05, global = 5.51347e-13, cumulative = -6.55415e-13
DICPCG:  Solving for p, Initial residual = 1.9072e-06, Final residual = 1.36177e-20, No Iterations 1
DICPCG:  Solving for p, Initial residual = 1.34982e-08, Final residual = 1.34982e-08, No Iterations 0
time step continuity errors : sum local = 0.000122336, global = 6.30961e-13, cumulative = -2.44541e-14
DICPCG:  Solving for p, Initial residual = 1.34991e-06, Final residual = 4.64699e-21, No Iterations 1
DICPCG:  Solving for p, Initial residual = 5.79152e-09, Final residual = 5.79152e-09, No Iterations 0
time step continuity errors : sum local = 5.24908e-05, global = 3.67971e-13, cumulative = 3.43517e-13
DICPCG:  Solving for p, Initial residual = 8.66351e-07, Final residual = 8.66351e-07, No Iterations 0
DICPCG:  Solving for p, Initial residual = 8.66351e-07, Final residual = 8.66351e-07, No Iterations 0
time step continuity errors : sum local = 0.00785208, global = -5.86606e-05, cumulative = -5.86606e-05
PIMPLE: iteration 6
smoothSolver:  Solving for Ux, Initial residual = 0.0131922, Final residual = 0.00107686, No Iterations 2
smoothSolver:  Solving for Uy, Initial residual = 0.0667274, Final residual = 0.00257454, No Iterations 3
smoothSolver:  Solving for Uz, Initial residual = 0.123048, Final residual = 0.00763485, No Iterations 2
DICPCG:  Solving for p, Initial residual = 7.93071e-05, Final residual = 8.15571e-19, No Iterations 1
DICPCG:  Solving for p, Initial residual = 7.6705e-07, Final residual = 7.6705e-07, No Iterations 0
time step continuity errors : sum local = 0.00693099, global = 9.7125e-14, cumulative = -5.86606e-05
DICPCG:  Solving for p, Initial residual = 2.16103e-05, Final residual = 5.65035e-19, No Iterations 1
DICPCG:  Solving for p, Initial residual = 2.0566e-07, Final residual = 2.0566e-07, No Iterations 0
time step continuity errors : sum local = 0.00185596, global = -5.17148e-13, cumulative = -5.86606e-05
DICPCG:  Solving for p, Initial residual = 1.24298e-05, Final residual = 6.04567e-20, No Iterations 1
DICPCG:  Solving for p, Initial residual = 5.82836e-08, Final residual = 5.82836e-08, No Iterations 0
time step continuity errors : sum local = 0.000525878, global = -5.87317e-14, cumulative = -5.86606e-05
DICPCG:  Solving for p, Initial residual = 6.08218e-06, Final residual = 1.05626e-19, No Iterations 1
DICPCG:  Solving for p, Initial residual = 4.49873e-08, Final residual = 4.49873e-08, No Iterations 0
time step continuity errors : sum local = 0.000405976, global = 1.10776e-13, cumulative = -5.86606e-05
DICPCG:  Solving for p, Initial residual = 3.7853e-06, Final residual = 7.21067e-21, No Iterations 1
DICPCG:  Solving for p, Initial residual = 2.06348e-08, Final residual = 2.06348e-08, No Iterations 0
time step continuity errors : sum local = 0.000186219, global = -1.32324e-13, cumulative = -5.86606e-05
DICPCG:  Solving for p, Initial residual = 2.31755e-06, Final residual = 3.20699e-20, No Iterations 1
DICPCG:  Solving for p, Initial residual = 1.54975e-08, Final residual = 1.54975e-08, No Iterations 0
time step continuity errors : sum local = 0.000139848, global = 2.45346e-14, cumulative = -5.86606e-05
DICPCG:  Solving for p, Initial residual = 1.49947e-06, Final residual = 1.85094e-21, No Iterations 1
DICPCG:  Solving for p, Initial residual = 7.7912e-09, Final residual = 7.7912e-09, No Iterations 0
time step continuity errors : sum local = 7.03068e-05, global = -1.64425e-13, cumulative = -5.86606e-05
DICPCG:  Solving for p, Initial residual = 9.25034e-07, Final residual = 9.25034e-07, No Iterations 0
DICPCG:  Solving for p, Initial residual = 9.25034e-07, Final residual = 9.25034e-07, No Iterations 0
time step continuity errors : sum local = 0.00834738, global = -4.1434e-05, cumulative = -0.000100095
DICPCG:  Solving for p, Initial residual = 1.30747e-06, Final residual = 4.50796e-21, No Iterations 1
DICPCG:  Solving for p, Initial residual = 6.27106e-09, Final residual = 6.27106e-09, No Iterations 0
time step continuity errors : sum local = 5.65902e-05, global = -8.1223e-14, cumulative = -0.000100095
DICPCG:  Solving for p, Initial residual = 6.31935e-07, Final residual = 6.31935e-07, No Iterations 0
DICPCG:  Solving for p, Initial residual = 6.31935e-07, Final residual = 6.31935e-07, No Iterations 0
time step continuity errors : sum local = 0.0057026, global = 0.000134471, cumulative = 3.43769e-05
PIMPLE: iteration 7
smoothSolver:  Solving for Ux, Initial residual = 0.0099453, Final residual = 8.55882e-06, No Iterations 6
smoothSolver:  Solving for Uy, Initial residual = 0.057693, Final residual = 3.64151e-06, No Iterations 9
smoothSolver:  Solving for Uz, Initial residual = 0.113329, Final residual = 4.69596e-06, No Iterations 8
DICPCG:  Solving for p, Initial residual = 5.52678e-05, Final residual = 3.35688e-20, No Iterations 1
DICPCG:  Solving for p, Initial residual = 3.73949e-07, Final residual = 3.73949e-07, No Iterations 0
time step continuity errors : sum local = 0.00337334, global = 2.34655e-13, cumulative = 3.43769e-05
DICPCG:  Solving for p, Initial residual = 1.0321e-05, Final residual = 3.53562e-20, No Iterations 1
DICPCG:  Solving for p, Initial residual = 1.1184e-07, Final residual = 1.1184e-07, No Iterations 0
time step continuity errors : sum local = 0.00100877, global = 2.09383e-14, cumulative = 3.43769e-05
DICPCG:  Solving for p, Initial residual = 5.69284e-06, Final residual = 3.65677e-20, No Iterations 1
DICPCG:  Solving for p, Initial residual = 3.66385e-08, Final residual = 3.66385e-08, No Iterations 0
time step continuity errors : sum local = 0.000330496, global = 5.59043e-13, cumulative = 3.43769e-05
DICPCG:  Solving for p, Initial residual = 3.1208e-06, Final residual = 4.24631e-21, No Iterations 1
DICPCG:  Solving for p, Initial residual = 1.70486e-08, Final residual = 1.70486e-08, No Iterations 0
time step continuity errors : sum local = 0.00015379, global = -2.19608e-14, cumulative = 3.43769e-05
DICPCG:  Solving for p, Initial residual = 1.85914e-06, Final residual = 9.93383e-21, No Iterations 1
DICPCG:  Solving for p, Initial residual = 1.12751e-08, Final residual = 1.12751e-08, No Iterations 0
time step continuity errors : sum local = 0.000101706, global = -2.08404e-13, cumulative = 3.43769e-05
DICPCG:  Solving for p, Initial residual = 1.1799e-06, Final residual = 2.64877e-21, No Iterations 1
DICPCG:  Solving for p, Initial residual = 4.54208e-09, Final residual = 4.54208e-09, No Iterations 0
time step continuity errors : sum local = 4.09708e-05, global = 3.31474e-13, cumulative = 3.43769e-05
DICPCG:  Solving for p, Initial residual = 7.56444e-07, Final residual = 7.56444e-07, No Iterations 0
DICPCG:  Solving for p, Initial residual = 7.56444e-07, Final residual = 7.56444e-07, No Iterations 0
time step continuity errors : sum local = 0.00682333, global = 0.000295873, cumulative = 0.00033025
DICPCG:  Solving for p, Initial residual = 1.01006e-06, Final residual = 4.15961e-21, No Iterations 1
DICPCG:  Solving for p, Initial residual = 4.18364e-09, Final residual = 4.18364e-09, No Iterations 0
time step continuity errors : sum local = 3.77382e-05, global = 3.58212e-13, cumulative = 0.00033025
DICPCG:  Solving for p, Initial residual = 4.63113e-07, Final residual = 4.63113e-07, No Iterations 0
DICPCG:  Solving for p, Initial residual = 4.63113e-07, Final residual = 4.63113e-07, No Iterations 0
time step continuity errors : sum local = 0.00417748, global = -8.72574e-05, cumulative = 0.000242992
DICPCG:  Solving for p, Initial residual = 6.41789e-07, Final residual = 6.41789e-07, No Iterations 0
DICPCG:  Solving for p, Initial residual = 6.41789e-07, Final residual = 6.41789e-07, No Iterations 0
time step continuity errors : sum local = 0.00578921, global = 8.72754e-05, cumulative = 0.000330268
ExecutionTime = 0.44 s  ClockTime = 2 s

surfaceRegion PRESSURE_upWire write:
    none(upWire) of p = 0

surfaceRegion TRACTION_upWire write:
    none(upWire) of wallShearStress = (0 0 0)

surfaceRegion PRESSURE_deformWire write:
    none(deformWire) of p = 0

surfaceRegion TRACTION_deformWire write:
    none(deformWire) of wallShearStress = (0 0 0)

surfaceRegion PRESSURE_finalWire write:
    none(finalWire) of p = 0

surfaceRegion TRACTION_finalWire write:
    none(finalWire) of wallShearStress = (0 0 0)

I get past the save

