/*---------------------------------------------------------------------------*\
| =========                 |                                                 |
| \\      /  F ield         | OpenFOAM: The Open Source CFD Toolbox           |
|  \\    /   O peration     | Version:  4.1                                   |
|   \\  /    A nd           | Web:      www.OpenFOAM.org                      |
|    \\/     M anipulation  |                                                 |
\*---------------------------------------------------------------------------*/
Build  : 4.1
Exec   : pimpleDyMFoam -parallel
Date   : Aug 05 2020
Time   : 15:43:45
Host   : "cfdclu13.ugent.be"
PID    : 422769
Case   : /lusers/temp/lucas/Temp_CoCoNut/coconut/test_examples/tube_OpenFoam3d_abaqus3d/Test_pointDisplacement_Parallel_Decompose_Reconstruct
nProcs : 2
Slaves : 1("cfdclu13.ugent.be.422770")
Pstream initialized with:
    floatTransfer      : 0
    nProcsSimpleSum    : 0
    commsType          : nonBlocking
    polling iterations : 0
sigFpe : Enabling floating point exception trapping (FOAM_SIGFPE).
fileModificationChecking : Monitoring run-time modified files using timeStampMaster
allowSystemOperations : Allowing user-supplied system call operations

// * * * * * * * * * * * * * * * * * * * * * * * * * * * * * * * * * * * * * //
Create time

Create mesh for time = 1e-05

Selecting dynamicFvMesh dynamicMotionSolverFvMesh
Selecting motion solver: displacementLaplacian
Selecting motion diffusion: inverseDistance

PIMPLE: Operating solver in PISO mode

Reading field p

Reading field U

Reading/calculating face flux field phi

Selecting incompressible transport model Newtonian
Selecting turbulence model type RAS
Selecting RAS turbulence model kEpsilon
kEpsilonCoeffs
{
    Cmu             0.09;
    C1              1.44;
    C2              1.92;
    C3              -0.33;
    sigmak          1;
    sigmaEps        1.3;
}

No MRF models present

Reading/calculating face velocity Uf

No finite volume options present

Courant Number mean: 0.21955 max: 1.13987

Starting time loop

wallShearStress wallShearStress:
    processing wall patches: 
        mantle

Courant Number mean: 0.21955 max: 1.13987
Time = 2e-05

GAMG:  Solving for cellDisplacementx, Initial residual = 0, Final residual = 0, No Iterations 0
GAMG:  Solving for cellDisplacementy, Initial residual = 0.997997, Final residual = 0.00391694, No Iterations 2
GAMG:  Solving for cellDisplacementz, Initial residual = 0.99807, Final residual = 0.00393198, No Iterations 2
PIMPLE: iteration 1
smoothSolver:  Solving for Ux, Initial residual = 0.882017, Final residual = 6.50591e-06, No Iterations 4
smoothSolver:  Solving for Uy, Initial residual = 0.430949, Final residual = 7.91057e-07, No Iterations 4
smoothSolver:  Solving for Uz, Initial residual = 0.429043, Final residual = 1.0127e-06, No Iterations 4
GAMG:  Solving for p, Initial residual = 0.0209273, Final residual = 0.000152964, No Iterations 4
time step continuity errors : sum local = 1.47614e-06, global = 2.13983e-07, cumulative = 2.13983e-07
GAMG:  Solving for p, Initial residual = 0.00650594, Final residual = 3.8866e-08, No Iterations 10
time step continuity errors : sum local = 3.7326e-10, global = -8.82291e-11, cumulative = 2.13895e-07
smoothSolver:  Solving for epsilon, Initial residual = 0.0497898, Final residual = 3.15194e-07, No Iterations 3
smoothSolver:  Solving for k, Initial residual = 0.972931, Final residual = 3.93834e-07, No Iterations 4
ExecutionTime = 0.18 s  ClockTime = 0 s

wallShearStress wallShearStress write:
    writing field wallShearStress
    min/max(mantle) = (-0.0254359 -0.00120314 -0.00122593), (-0.00739069 0.00121991 0.00122556)
End

Finalising parallel run
