/*---------------------------------------------------------------------------*\
| =========                 |                                                 |
| \\      /  F ield         | OpenFOAM: The Open Source CFD Toolbox           |
|  \\    /   O peration     | Version:  4.1                                   |
|   \\  /    A nd           | Web:      www.OpenFOAM.org                      |
|    \\/     M anipulation  |                                                 |
\*---------------------------------------------------------------------------*/
Build  : 4.1
Exec   : pimpleDyMFoam -parallel
Date   : Aug 04 2020
Time   : 17:35:41
Host   : "cfdclu13.ugent.be"
PID    : 410015
Case   : /lusers/temp/lucas/Temp_CoCoNut/coconut/test_examples/tube_OpenFoam3d_abaqus3d/Test_pointDisplacement_Parallel
nProcs : 2
Slaves : 1("cfdclu13.ugent.be.410016")
Pstream initialized with:
    floatTransfer      : 0
    nProcsSimpleSum    : 0
    commsType          : nonBlocking
    polling iterations : 0
sigFpe : Enabling floating point exception trapping (FOAM_SIGFPE).
fileModificationChecking : Monitoring run-time modified files using timeStampMaster
allowSystemOperations : Allowing user-supplied system call operations

// * * * * * * * * * * * * * * * * * * * * * * * * * * * * * * * * * * * * * //
Create time

Create mesh for time = 1e-05

Selecting dynamicFvMesh dynamicMotionSolverFvMesh
Selecting motion solver: displacementLaplacian
Selecting motion diffusion: inverseDistance

PIMPLE: Operating solver in PISO mode

Reading field p

Reading field U

Reading/calculating face flux field phi

Selecting incompressible transport model Newtonian
Selecting turbulence model type RAS
Selecting RAS turbulence model kEpsilon
kEpsilonCoeffs
{
    Cmu             0.09;
    C1              1.44;
    C2              1.92;
    C3              -0.33;
    sigmak          1;
    sigmaEps        1.3;
}

No MRF models present

Reading/calculating face velocity Uf

No finite volume options present

Courant Number mean: 0.218936 max: 1.13904

Starting time loop

wallShearStress wallShearStress:
    processing wall patches: 
        mantle

Courant Number mean: 0.218936 max: 1.13904
Time = 2e-05

GAMG:  Solving for cellDisplacementx, Initial residual = 0, Final residual = 0, No Iterations 0
GAMG:  Solving for cellDisplacementy, Initial residual = 0.997749, Final residual = 0.0040287, No Iterations 2
GAMG:  Solving for cellDisplacementz, Initial residual = 0.998017, Final residual = 0.00415365, No Iterations 2
PIMPLE: iteration 1
smoothSolver:  Solving for Ux, Initial residual = 0.88213, Final residual = 6.04104e-06, No Iterations 4
smoothSolver:  Solving for Uy, Initial residual = 0.430295, Final residual = 7.87003e-07, No Iterations 4
smoothSolver:  Solving for Uz, Initial residual = 0.429244, Final residual = 1.01822e-06, No Iterations 4
GAMG:  Solving for p, Initial residual = 0.0211909, Final residual = 0.000145033, No Iterations 4
time step continuity errors : sum local = 1.36483e-06, global = 2.20521e-07, cumulative = 2.20521e-07
GAMG:  Solving for p, Initial residual = 0.00668274, Final residual = 3.39731e-08, No Iterations 10
time step continuity errors : sum local = 3.17719e-10, global = -7.76392e-11, cumulative = 2.20443e-07
smoothSolver:  Solving for epsilon, Initial residual = 0.0493346, Final residual = 3.03945e-07, No Iterations 3
smoothSolver:  Solving for k, Initial residual = 0.970545, Final residual = 3.62657e-07, No Iterations 4
ExecutionTime = 0.21 s  ClockTime = 0 s

wallShearStress wallShearStress write:
    writing field wallShearStress
    min/max(mantle) = (-0.0254595 -0.00123205 -0.00125825), (-0.00739206 0.00122677 0.00122928)
End

Finalising parallel run
