/*---------------------------------------------------------------------------*\
| =========                 |                                                 |
| \\      /  F ield         | OpenFOAM: The Open Source CFD Toolbox           |
|  \\    /   O peration     | Version:  4.1                                   |
|   \\  /    A nd           | Web:      www.OpenFOAM.org                      |
|    \\/     M anipulation  |                                                 |
\*---------------------------------------------------------------------------*/
Build  : 4.1
Exec   : decomposePar -fields
Date   : Sep 08 2020
Time   : 16:46:42
Host   : "cfdclu27.ugent.be"
PID    : 30765
Case   : /cfdfile2/data/fm/mathieu/PycharmProjects/coconut/coconut/test_examples/tube_OpenFoam3d_abaqus3d/test_Restart
nProcs : 1
sigFpe : Enabling floating point exception trapping (FOAM_SIGFPE).
fileModificationChecking : Monitoring run-time modified files using timeStampMaster
allowSystemOperations : Allowing user-supplied system call operations

// * * * * * * * * * * * * * * * * * * * * * * * * * * * * * * * * * * * * * //
Create time



Decomposing mesh region0

Create mesh
Time = 0.000030

Processor 0: field transfer
Detected additional non-decomposed files in "/cfdfile2/data/fm/mathieu/PycharmProjects/coconut/coconut/test_examples/tube_OpenFoam3d_abaqus3d/test_Restart/0.000030/uniform"
--> FOAM Warning : 
    From function bool Foam::ln(const Foam::fileName &, const Foam::fileName &)
    in file POSIX.C at line 731
    destination "uniform" already exists. Not linking.
Processor 1: field transfer
Detected additional non-decomposed files in "/cfdfile2/data/fm/mathieu/PycharmProjects/coconut/coconut/test_examples/tube_OpenFoam3d_abaqus3d/test_Restart/0.000030/uniform"
--> FOAM Warning : 
    From function bool Foam::ln(const Foam::fileName &, const Foam::fileName &)
    in file POSIX.C at line 731
    destination "uniform" already exists. Not linking.

End

