/*---------------------------------------------------------------------------*\
| =========                 |                                                 |
| \\      /  F ield         | OpenFOAM: The Open Source CFD Toolbox           |
|  \\    /   O peration     | Version:  4.1                                   |
|   \\  /    A nd           | Web:      www.OpenFOAM.org                      |
|    \\/     M anipulation  |                                                 |
\*---------------------------------------------------------------------------*/
Build  : 4.1
Exec   : decomposePar
Date   : Sep 08 2020
Time   : 16:45:58
Host   : "cfdclu27.ugent.be"
PID    : 30652
Case   : /cfdfile2/data/fm/mathieu/PycharmProjects/coconut/coconut/test_examples/tube_OpenFoam3d_abaqus3d/test_Restart
nProcs : 1
sigFpe : Enabling floating point exception trapping (FOAM_SIGFPE).
fileModificationChecking : Monitoring run-time modified files using timeStampMaster
allowSystemOperations : Allowing user-supplied system call operations

// * * * * * * * * * * * * * * * * * * * * * * * * * * * * * * * * * * * * * //
Create time



Decomposing mesh region0



--> FOAM FATAL ERROR: 
Case is already decomposed with 2 domains, use the -force option or manually
remove processor directories before decomposing. e.g.,
    rm -rf /cfdfile2/data/fm/mathieu/PycharmProjects/coconut/coconut/test_examples/tube_OpenFoam3d_abaqus3d/test_Restart/processor*


    From function int main(int, char **)
    in file decomposePar.C at line 393.

FOAM exiting

