/*---------------------------------------------------------------------------*\
| =========                 |                                                 |
| \\      /  F ield         | OpenFOAM: The Open Source CFD Toolbox           |
|  \\    /   O peration     | Version:  4.1                                   |
|   \\  /    A nd           | Web:      www.OpenFOAM.org                      |
|    \\/     M anipulation  |                                                 |
\*---------------------------------------------------------------------------*/
Build  : 4.1
Exec   : CoCoNuT_pimpleFoam -parallel
Date   : Sep 08 2020
Time   : 16:45:44
Host   : "cfdclu27.ugent.be"
PID    : 30618
Case   : /cfdfile2/data/fm/mathieu/PycharmProjects/coconut/coconut/test_examples/tube_OpenFoam3d_abaqus3d/test_Restart
nProcs : 2
Slaves : 1("cfdclu27.ugent.be.30619")
Pstream initialized with:
    floatTransfer      : 0
    nProcsSimpleSum    : 0
    commsType          : nonBlocking
    polling iterations : 0
sigFpe : Enabling floating point exception trapping (FOAM_SIGFPE).
fileModificationChecking : Monitoring run-time modified files using timeStampMaster
allowSystemOperations : Allowing user-supplied system call operations

// * * * * * * * * * * * * * * * * * * * * * * * * * * * * * * * * * * * * * //
Create time

Create mesh for time = 0.000000

Selecting dynamicFvMesh dynamicMotionSolverFvMesh
Selecting motion solver: displacementLaplacian
Selecting motion diffusion: inverseDistance

PIMPLE: Operating solver in PISO mode

Reading field p

Reading field U

Reading/calculating face flux field phi

Selecting incompressible transport model Newtonian
Selecting turbulence model type RAS
Selecting RAS turbulence model kEpsilon
kEpsilonCoeffs
{
    Cmu             0.09;
    C1              1.44;
    C2              1.92;
    C3              -0.33;
    sigmak          1;
    sigmaEps        1.3;
}

No MRF models present

Reading/calculating face velocity Uf

No finite volume options present

Courant Number mean: 0 max: 0
wallShearStress wallShearStress:
    processing wall patches: 
        mantle

Courant Number mean: 0 max: 0
0.000000

Time = 0.000010

Reading pointDisplacement

prev_runTime0.000000
GAMG:  Solving for cellDisplacementx, Initial residual = 0, Final residual = 0, No Iterations 0
GAMG:  Solving for cellDisplacementy, Initial residual = 1, Final residual = 0.0042820362, No Iterations 2
GAMG:  Solving for cellDisplacementz, Initial residual = 1, Final residual = 0.0045244946, No Iterations 2
PIMPLE: iteration 1
smoothSolver:  Solving for Ux, Initial residual = 1, Final residual = 1.0217399e-07, No Iterations 3
smoothSolver:  Solving for Uy, Initial residual = 0, Final residual = 0, No Iterations 0
smoothSolver:  Solving for Uz, Initial residual = 0, Final residual = 0, No Iterations 0
GAMG:  Solving for p, Initial residual = 1, Final residual = 0.0017996943, No Iterations 2
time step continuity errors : sum local = 8.3591397e-06, global = -3.0166735e-06, cumulative = -3.0166735e-06
GAMG:  Solving for p, Initial residual = 0.032381667, Final residual = 6.7300371e-08, No Iterations 8
time step continuity errors : sum local = 6.2745469e-10, global = 1.2465734e-10, cumulative = -3.0165488e-06
smoothSolver:  Solving for epsilon, Initial residual = 0.024176631, Final residual = 2.0972302e-06, No Iterations 2
smoothSolver:  Solving for k, Initial residual = 1, Final residual = 2.9972344e-06, No Iterations 3
ExecutionTime = 0.31 s  ClockTime = 1 s

wallShearStress wallShearStress write:
    writing field wallShearStress
    min/max(mantle) = (-0.0094791206 -0.00035796633 -0.000359405), (-0.0038311485 0.00035137702 0.00036383243)
writeObjects writeObjects1 write:
    writing object pointDisplacement
    functionObjects::pressure pressure writing field: static(p)
I get past the save

Courant Number mean: 0.23360846 max: 1.1395691
0.000010

Time = 0.000020

Reading pointDisplacement

prev_runTime0.000010
GAMG:  Solving for cellDisplacementx, Initial residual = 0, Final residual = 0, No Iterations 0
GAMG:  Solving for cellDisplacementy, Initial residual = 0.16777872, Final residual = 0.00060718475, No Iterations 2
GAMG:  Solving for cellDisplacementz, Initial residual = 0.30142885, Final residual = 0.0011096499, No Iterations 2
PIMPLE: iteration 1
smoothSolver:  Solving for Ux, Initial residual = 0.85893349, Final residual = 2.0531083e-06, No Iterations 3
smoothSolver:  Solving for Uy, Initial residual = 0.35141442, Final residual = 3.7468171e-07, No Iterations 3
smoothSolver:  Solving for Uz, Initial residual = 0.33186804, Final residual = 4.943363e-07, No Iterations 3
GAMG:  Solving for p, Initial residual = 0.0091650044, Final residual = 4.1718346e-05, No Iterations 4
time step continuity errors : sum local = 3.7497986e-07, global = 2.0497626e-08, cumulative = -2.9960512e-06
GAMG:  Solving for p, Initial residual = 0.0016529434, Final residual = 9.1364964e-08, No Iterations 7
time step continuity errors : sum local = 8.2116255e-10, global = 7.5680398e-10, cumulative = -2.9952944e-06
smoothSolver:  Solving for epsilon, Initial residual = 0.011328224, Final residual = 4.1505909e-07, No Iterations 2
smoothSolver:  Solving for k, Initial residual = 0.23764289, Final residual = 8.0099704e-06, No Iterations 2
ExecutionTime = 0.84 s  ClockTime = 5 s

wallShearStress wallShearStress write:
    writing field wallShearStress
    min/max(mantle) = (-0.017558752 -0.00036958011 -0.00059201359), (-0.0077091621 0.00036429865 0.00059918913)
writeObjects writeObjects1 write:
    writing object pointDisplacement
    functionObjects::pressure pressure writing field: static(p)
I get past the save

Courant Number mean: 0.11726205 max: 0.54428066
0.000020

Time = 0.000030

Reading pointDisplacement

prev_runTime0.000020
GAMG:  Solving for cellDisplacementx, Initial residual = 0, Final residual = 0, No Iterations 0
GAMG:  Solving for cellDisplacementy, Initial residual = 0.15778008, Final residual = 0.00063697383, No Iterations 2
GAMG:  Solving for cellDisplacementz, Initial residual = 0.15949491, Final residual = 0.00062410029, No Iterations 2
PIMPLE: iteration 1
smoothSolver:  Solving for Ux, Initial residual = 0.78440008, Final residual = 6.4079599e-07, No Iterations 3
smoothSolver:  Solving for Uy, Initial residual = 0.28083532, Final residual = 1.3282967e-07, No Iterations 3
smoothSolver:  Solving for Uz, Initial residual = 0.28376811, Final residual = 1.3654357e-07, No Iterations 3
GAMG:  Solving for p, Initial residual = 0.0040758754, Final residual = 1.8840174e-05, No Iterations 3
time step continuity errors : sum local = 1.5897937e-07, global = -8.9449362e-08, cumulative = -3.0847438e-06
GAMG:  Solving for p, Initial residual = 0.00078300692, Final residual = 4.9524797e-08, No Iterations 5
time step continuity errors : sum local = 4.1776259e-10, global = 5.9214156e-11, cumulative = -3.0846846e-06
smoothSolver:  Solving for epsilon, Initial residual = 0.0078268671, Final residual = 8.9622699e-08, No Iterations 2
smoothSolver:  Solving for k, Initial residual = 0.1719537, Final residual = 2.8746829e-06, No Iterations 2
ExecutionTime = 1.37 s  ClockTime = 9 s

wallShearStress wallShearStress write:
    writing field wallShearStress
    min/max(mantle) = (-0.028963103 -0.00057335916 -0.00089003311), (-0.011473874 0.00056975573 0.00088965418)
writeObjects writeObjects1 write:
    writing object pointDisplacement
    functionObjects::pressure pressure writing field: static(p)
I get past the save

Finalising parallel run
