/*---------------------------------------------------------------------------*\
| =========                 |                                                 |
| \\      /  F ield         | OpenFOAM: The Open Source CFD Toolbox           |
|  \\    /   O peration     | Version:  4.1                                   |
|   \\  /    A nd           | Web:      www.OpenFOAM.org                      |
|    \\/     M anipulation  |                                                 |
\*---------------------------------------------------------------------------*/
Build  : 4.1
Exec   : decomposePar -force -time 0
Date   : Sep 02 2020
Time   : 10:17:19
Host   : "cfdclu27.ugent.be"
PID    : 20161
Case   : /cfdfile2/data/fm/mathieu/PycharmProjects/coconut/coconut/test_examples/tube_OpenFoam3d_abaqus3d/CFD_test1
nProcs : 1
sigFpe : Enabling floating point exception trapping (FOAM_SIGFPE).
fileModificationChecking : Monitoring run-time modified files using timeStampMaster
allowSystemOperations : Allowing user-supplied system call operations

// * * * * * * * * * * * * * * * * * * * * * * * * * * * * * * * * * * * * * //
Create time



Decomposing mesh region0

Create mesh

Calculating distribution of cells
Selecting decompositionMethod scotch

Finished decomposition in 0.06 s

Calculating original mesh data

Distributing cells to processors

Distributing faces to processors

Distributing points to processors

Constructing processor meshes

Processor 0
    Number of cells = 1536
    Number of faces shared with processor 1 = 128
    Number of processor patches = 1
    Number of processor faces = 128
    Number of boundary faces = 512

Processor 1
    Number of cells = 1536
    Number of faces shared with processor 0 = 128
    Number of faces shared with processor 2 = 128
    Number of processor patches = 2
    Number of processor faces = 256
    Number of boundary faces = 384

Processor 2
    Number of cells = 1536
    Number of faces shared with processor 1 = 128
    Number of faces shared with processor 3 = 128
    Number of processor patches = 2
    Number of processor faces = 256
    Number of boundary faces = 384

Processor 3
    Number of cells = 1536
    Number of faces shared with processor 2 = 128
    Number of processor patches = 1
    Number of processor faces = 128
    Number of boundary faces = 512

Number of processor faces = 384
Max number of cells = 1536 (0% above average 1536)
Max number of processor patches = 2 (33.3333% above average 1.5)
Max number of faces between processors = 256 (33.3333% above average 192)

Time = 0

Processor 0: field transfer
Processor 1: field transfer
Processor 2: field transfer
Processor 3: field transfer

End

