/*---------------------------------------------------------------------------*\
| =========                 |                                                 |
| \\      /  F ield         | foam-extend: Open Source CFD                    |
|  \\    /   O peration     | Version:     4.1-20200408                       |
|   \\  /    A nd           | Web:         http://www.foam-extend.org         |
|    \\/     M anipulation  | For copyright notice see file Copyright         |
\*---------------------------------------------------------------------------*/
Build  : 4.1-20200408
Exec   : writeCellCentres -time 0.00010
Date   : Mar 15 2022
Time   : 11:39:20
Host   : "cfdclu60.ugent.be"
PID    : 20598
CtrlDict : "/lusers/temp/mathieu/PycharmProjects/coconut/examples/test_pressure_pertubation_structureFE41_coarse/test_v41/wire/CSM/system/controlDict"
Case   : /lusers/temp/mathieu/PycharmProjects/coconut/examples/test_pressure_pertubation_structureFE41_coarse/test_v41/wire/CSM
nProcs : 1
sigFpe : Enabling floating point exception trapping (FOAM_SIGFPE).
allowSystemOperations : Disallowing user-supplied system call operations

// * * * * * * * * * * * * * * * * * * * * * * * * * * * * * * * * * * * * * //
Create time

Create mesh for time = 0.00010

Time = 0.00010
Writing components of cellCentre positions to volScalarFields ccx, ccy, ccz in 0.00010

End
