/*---------------------------------------------------------------------------*\
| =========                 |                                                 |
| \\      /  F ield         | foam-extend: Open Source CFD                    |
|  \\    /   O peration     | Version:     4.1-20200408                       |
|   \\  /    A nd           | Web:         http://www.foam-extend.org         |
|    \\/     M anipulation  | For copyright notice see file Copyright         |
\*---------------------------------------------------------------------------*/
Build  : 4.1-20200408
Exec   : coconut_plasticNonLinSolidFoam
Date   : Mar 15 2022
Time   : 11:39:07
Host   : "cfdclu60.ugent.be"
PID    : 20575
CtrlDict : "/lusers/temp/mathieu/PycharmProjects/coconut/examples/test_pressure_pertubation_structureFE41_coarse/test_v41/wire/CSM/system/controlDict"
Case   : /lusers/temp/mathieu/PycharmProjects/coconut/examples/test_pressure_pertubation_structureFE41_coarse/test_v41/wire/CSM
nProcs : 1
sigFpe : Enabling floating point exception trapping (FOAM_SIGFPE).
allowSystemOperations : Disallowing user-supplied system call operations

// * * * * * * * * * * * * * * * * * * * * * * * * * * * * * * * * * * * * * //
Create time

Create dynamic mesh for time = 0.00000

Selecting dynamicFvMesh solidDynamicFvMesh
No mesh smoother specified
Setting nonLinear to updatedLagrangianKirchhoff

Reading field DU

Creating mechanical model
Selecting mechanical law multiMaterial
Selecting mechanical law elastoPlasticKirchhoff
Creating field sigmaY
Creating field DSigmaY
Creating field epsilonP
Creating field DEpsilonP
Creating field bEbarTrial
Creating field bEbar
Creating field DEpsilonPEq
Creating field DLambda
Creating field epsilonPEq
Creating field activeYield
Creating field plasticN
Creating field sigmaHyd
    smoothPressure: false
    smoothFactor: 10
elastoPlasticKirchhoff: RhieChowScaleFactor = 0.1
Setting nonLinear to updatedLagrangianKirchhoff

Time: 0.00010

Coupling iteration = 1

    Time 0.0001, Corr 0, res = 1, rel res = 1, material res = 1.17779e+12, iters = 0
    Time 0.0001, Corr 100, res = 0.00457372, rel res = 0.00668808, material res = 0.00620952, iters = 0
    Time 0.0001, Corr 200, res = 0.00259781, rel res = 0.00265648, material res = 0.0034356, iters = 0
    Time 0.0001, Corr 300, res = 0.0013648, rel res = 0.00135498, material res = 0.00179756, iters = 0
    Time 0.0001, Corr 400, res = 0.000791017, rel res = 0.000752846, material res = 0.00099143, iters = 0
    Time 0.0001, Corr 500, res = 0.000504358, rel res = 0.00043518, material res = 0.000569332, iters = 0
    Time 0.0001, Corr 600, res = 0.000361627, rel res = 0.000256804, material res = 0.000334663, iters = 0
    Time 0.0001, Corr 700, res = 0.000285413, rel res = 0.000153234, material res = 0.000199306, iters = 0
    Time 0.0001, Corr 800, res = 0.000239361, rel res = 9.19573e-05, material res = 0.000119526, iters = 0
    Time 0.0001, Corr 900, res = 0.000209704, rel res = 5.53198e-05, material res = 7.19177e-05, iters = 0
    Time 0.0001, Corr 1000, res = 0.000189315, rel res = 3.32906e-05, material res = 4.33135e-05, iters = 0
    Time 0.0001, Corr 1100, res = 0.000174369, rel res = 2.00111e-05, material res = 2.60698e-05, iters = 0
    Time 0.0001, Corr 1200, res = 0.00016276, rel res = 1.20014e-05, material res = 1.56628e-05, iters = 0
    Time 0.0001, Corr 1300, res = 0.000153294, rel res = 7.17426e-06, material res = 9.38419e-06, iters = 0
    Time 0.0001, Corr 1400, res = 0.000145273, rel res = 4.27044e-06, material res = 5.60169e-06, iters = 0
    Time 0.0001, Corr 1500, res = 0.000138286, rel res = 2.52843e-06, material res = 3.32825e-06, iters = 0
    Time 0.0001, Corr 1600, res = 0.000132069, rel res = 1.48713e-06, material res = 1.9661e-06, iters = 0
    Time 0.0001, Corr 1700, res = 0.000126856, rel res = 8.67472e-07, material res = 1.15319e-06, iters = 0
    Time 0.0001, Corr 1800, res = 0.000122956, rel res = 5.0077e-07, material res = 6.70428e-07, iters = 0
    Time 0.0001, Corr 1900, res = 0.000119288, rel res = 2.8524e-07, material res = 3.85446e-07, iters = 0
    Time 0.0001, Corr 2000, res = 0.000115834, rel res = 1.59633e-07, material res = 2.18461e-07, iters = 0
    Time 0.0001, Corr 2100, res = 0.000112687, rel res = 8.72105e-08, material res = 1.21521e-07, iters = 0
    Time 0.0001, Corr 2200, res = 0.000109673, rel res = 4.60245e-08, material res = 6.59066e-08, iters = 0
    Time 0.0001, Corr 2300, res = 0.000106785, rel res = 2.30248e-08, material res = 3.44988e-08, iters = 0
    Time 0.0001, Corr 2400, res = 0.00010401, rel res = 1.04984e-08, material res = 1.71516e-08, iters = 0
    Time 0.0001, Corr 2500, res = 0.000101341, rel res = 3.91975e-09, material res = 7.91441e-09, iters = 0
	The relative residual has converged
    Time 0.0001, Corr 2586, res = 9.91302e-05, rel res = 9.86673e-10, material res = 3.82665e-09, iters = 0

Updating the yield stress
    Max DEpsilonPEq is 0.168185
sigmaY_after dimensions      [1 -1 -2 0 0 0 0];

internalField   nonuniform List<scalar> 6(1.25e+09 1.25e+09 1.27142e+09 1.30386e+09 1.3118e+09 1.30119e+09);

boundaryField
{
    wireDownstream
    {
        type            calculated;
        value           uniform 1.25e+09;
    }
    wireUpstream
    {
        type            calculated;
        value           uniform 1.29917e+09;
    }
    wireTopContact
    {
        type            calculated;
        value           nonuniform List<scalar> 6(1.25e+09 1.25e+09 1.27142e+09 1.30386e+09 1.3118e+09 1.30119e+09);
    }
    front
    {
        type            wedge;
    }
    back
    {
        type            wedge;
    }
}


DSigmay dimensions      [1 -1 -2 0 0 0 0];

internalField   nonuniform List<scalar> 6(0 0 2.14163e+07 5.38614e+07 6.17951e+07 5.11871e+07);

boundaryField
{
    wireDownstream
    {
        type            calculated;
        value           uniform 0;
    }
    wireUpstream
    {
        type            calculated;
        value           uniform 4.91656e+07;
    }
    wireTopContact
    {
        type            calculated;
        value           nonuniform List<scalar> 6(0 0 2.1416e+07 5.3863e+07 6.17959e+07 5.11859e+07);
    }
    front
    {
        type            wedge;
    }
    back
    {
        type            wedge;
    }
}


    4 cells are actively yielding

elastoPlasticKirchhoff: RhieChowScaleFactor = 0.1
ExecutionTime = 2.69 s clockTime = 3 s

Coupling iteration 1 end

Coupling iteration = 2

    Time 0.0001, Corr 0, res = 0.000235996, rel res = 0.00108196, material res = 0.000836398, iters = 0
    Time 0.0001, Corr 100, res = 0.000201809, rel res = 0.000342511, material res = 0.00044064, iters = 0
    Time 0.0001, Corr 200, res = 0.000120893, rel res = 0.000209722, material res = 0.000273469, iters = 0
    Time 0.0001, Corr 300, res = 7.52379e-05, rel res = 0.000130151, material res = 0.00017033, iters = 0
    Time 0.0001, Corr 400, res = 6.51139e-05, rel res = 8.04474e-05, material res = 0.000105489, iters = 0
    Time 0.0001, Corr 500, res = 7.16979e-05, rel res = 4.95101e-05, material res = 6.50181e-05, iters = 0
    Time 0.0001, Corr 600, res = 7.47594e-05, rel res = 3.03654e-05, material res = 3.99292e-05, iters = 0
    Time 0.0001, Corr 700, res = 7.57326e-05, rel res = 1.85719e-05, material res = 2.44516e-05, iters = 0
    Time 0.0001, Corr 800, res = 7.54968e-05, rel res = 1.13319e-05, material res = 1.49374e-05, iters = 0
    Time 0.0001, Corr 900, res = 7.45716e-05, rel res = 6.89945e-06, material res = 9.10563e-06, iters = 0
    Time 0.0001, Corr 1000, res = 7.32711e-05, rel res = 4.19206e-06, material res = 5.53935e-06, iters = 0
    Time 0.0001, Corr 1100, res = 7.17839e-05, rel res = 2.54182e-06, material res = 3.36306e-06, iters = 0
    Time 0.0001, Corr 1200, res = 7.02163e-05, rel res = 1.53795e-06, material res = 2.03761e-06, iters = 0
    Time 0.0001, Corr 1300, res = 6.86296e-05, rel res = 9.28481e-07, material res = 1.23192e-06, iters = 0
    Time 0.0001, Corr 1400, res = 6.7062e-05, rel res = 5.59212e-07, material res = 7.4313e-07, iters = 0
    Time 0.0001, Corr 1500, res = 6.55294e-05, rel res = 3.3595e-07, material res = 4.47198e-07, iters = 0
    Time 0.0001, Corr 1600, res = 6.40443e-05, rel res = 2.01267e-07, material res = 2.68413e-07, iters = 0
    Time 0.0001, Corr 1700, res = 6.26095e-05, rel res = 1.20214e-07, material res = 1.60648e-07, iters = 0
    Time 0.0001, Corr 1800, res = 6.12246e-05, rel res = 7.15641e-08, material res = 9.58511e-08, iters = 0
    Time 0.0001, Corr 1900, res = 5.98921e-05, rel res = 4.24452e-08, material res = 5.69941e-08, iters = 0
    Time 0.0001, Corr 2000, res = 5.86056e-05, rel res = 2.50708e-08, material res = 3.37604e-08, iters = 0
    Time 0.0001, Corr 2100, res = 5.73679e-05, rel res = 1.47395e-08, material res = 1.99127e-08, iters = 0
    Time 0.0001, Corr 2200, res = 5.61706e-05, rel res = 8.61969e-09, material res = 1.16884e-08, iters = 0
    Time 0.0001, Corr 2300, res = 5.50185e-05, rel res = 5.01011e-09, material res = 6.82326e-09, iters = 0
    Time 0.0001, Corr 2400, res = 5.39037e-05, rel res = 2.89142e-09, material res = 3.95796e-09, iters = 0
    Time 0.0001, Corr 2500, res = 5.28261e-05, rel res = 1.6547e-09, material res = 2.27893e-09, iters = 0
	The relative residual has converged
    Time 0.0001, Corr 2589, res = 5.18954e-05, rel res = 9.98447e-10, material res = 1.38414e-09, iters = 0

Updating the yield stress
    Max DEpsilonPEq is 0.14804
sigmaY_after dimensions      [1 -1 -2 0 0 0 0];

internalField   nonuniform List<scalar> 6(1.25e+09 1.25e+09 1.26936e+09 1.29889e+09 1.30439e+09 1.29258e+09);

boundaryField
{
    wireDownstream
    {
        type            calculated;
        value           uniform 1.25e+09;
    }
    wireUpstream
    {
        type            calculated;
        value           uniform 1.29051e+09;
    }
    wireTopContact
    {
        type            calculated;
        value           nonuniform List<scalar> 6(1.25e+09 1.25e+09 1.26936e+09 1.29889e+09 1.30439e+09 1.29258e+09);
    }
    front
    {
        type            wedge;
    }
    back
    {
        type            wedge;
    }
}


DSigmay dimensions      [1 -1 -2 0 0 0 0];

internalField   nonuniform List<scalar> 6(0 0 1.93645e+07 4.88876e+07 5.43934e+07 4.25786e+07);

boundaryField
{
    wireDownstream
    {
        type            calculated;
        value           uniform 0;
    }
    wireUpstream
    {
        type            calculated;
        value           uniform 4.05083e+07;
    }
    wireTopContact
    {
        type            calculated;
        value           nonuniform List<scalar> 6(0 0 1.93643e+07 4.8889e+07 5.4394e+07 4.25777e+07);
    }
    front
    {
        type            wedge;
    }
    back
    {
        type            wedge;
    }
}


    4 cells are actively yielding

elastoPlasticKirchhoff: RhieChowScaleFactor = 0.1
ExecutionTime = 5.35 s clockTime = 6 s

Coupling iteration 2 end

Coupling iteration = 3

    Time 0.0001, Corr 0, res = 0.000278083, rel res = 0.00015674, material res = 0.000138295, iters = 0
    Time 0.0001, Corr 100, res = 4.76769e-05, rel res = 1.72499e-05, material res = 1.67496e-05, iters = 0
    Time 0.0001, Corr 200, res = 4.80225e-05, rel res = 9.65711e-06, material res = 1.14409e-05, iters = 0
    Time 0.0001, Corr 300, res = 4.7862e-05, rel res = 5.8113e-06, material res = 7.45791e-06, iters = 0
    Time 0.0001, Corr 400, res = 4.73745e-05, rel res = 3.56392e-06, material res = 4.64563e-06, iters = 0
    Time 0.0001, Corr 500, res = 4.67276e-05, rel res = 2.19529e-06, material res = 2.86963e-06, iters = 0
    Time 0.0001, Corr 600, res = 4.59961e-05, rel res = 1.35303e-06, material res = 1.76961e-06, iters = 0
    Time 0.0001, Corr 700, res = 4.52295e-05, rel res = 8.33487e-07, material res = 1.09049e-06, iters = 0
    Time 0.0001, Corr 800, res = 4.4448e-05, rel res = 5.12982e-07, material res = 6.71483e-07, iters = 0
    Time 0.0001, Corr 900, res = 4.36671e-05, rel res = 3.15387e-07, material res = 4.13089e-07, iters = 0
    Time 0.0001, Corr 1000, res = 4.28976e-05, rel res = 1.93678e-07, material res = 2.53857e-07, iters = 0
    Time 0.0001, Corr 1100, res = 4.21429e-05, rel res = 1.18789e-07, material res = 1.5582e-07, iters = 0
    Time 0.0001, Corr 1200, res = 4.14045e-05, rel res = 7.2762e-08, material res = 9.55246e-08, iters = 0
    Time 0.0001, Corr 1300, res = 4.06833e-05, rel res = 4.45071e-08, material res = 5.84828e-08, iters = 0
    Time 0.0001, Corr 1400, res = 3.99795e-05, rel res = 2.71843e-08, material res = 3.57544e-08, iters = 0
    Time 0.0001, Corr 1500, res = 3.92942e-05, rel res = 1.65781e-08, material res = 2.18265e-08, iters = 0
    Time 0.0001, Corr 1600, res = 3.86245e-05, rel res = 1.00934e-08, material res = 1.33031e-08, iters = 0
    Time 0.0001, Corr 1700, res = 3.79733e-05, rel res = 6.13453e-09, material res = 8.0946e-09, iters = 0
    Time 0.0001, Corr 1800, res = 3.73369e-05, rel res = 3.72146e-09, material res = 4.91657e-09, iters = 0
    Time 0.0001, Corr 1900, res = 3.67172e-05, rel res = 2.25308e-09, material res = 2.98058e-09, iters = 0
    Time 0.0001, Corr 2000, res = 3.61102e-05, rel res = 1.36115e-09, material res = 1.80322e-09, iters = 0
	The relative residual has converged
    Time 0.0001, Corr 2061, res = 3.57485e-05, rel res = 9.99779e-10, material res = 1.32571e-09, iters = 0

Updating the yield stress
    Max DEpsilonPEq is 0.147368
sigmaY_after dimensions      [1 -1 -2 0 0 0 0];

internalField   nonuniform List<scalar> 6(1.25e+09 1.25e+09 1.26919e+09 1.29858e+09 1.30415e+09 1.29244e+09);

boundaryField
{
    wireDownstream
    {
        type            calculated;
        value           uniform 1.25e+09;
    }
    wireUpstream
    {
        type            calculated;
        value           uniform 1.29038e+09;
    }
    wireTopContact
    {
        type            calculated;
        value           nonuniform List<scalar> 6(1.25e+09 1.25e+09 1.26919e+09 1.29858e+09 1.30415e+09 1.29244e+09);
    }
    front
    {
        type            wedge;
    }
    back
    {
        type            wedge;
    }
}


DSigmay dimensions      [1 -1 -2 0 0 0 0];

internalField   nonuniform List<scalar> 6(0 0 1.91863e+07 4.85779e+07 5.41464e+07 4.24407e+07);

boundaryField
{
    wireDownstream
    {
        type            calculated;
        value           uniform 0;
    }
    wireUpstream
    {
        type            calculated;
        value           uniform 4.03849e+07;
    }
    wireTopContact
    {
        type            calculated;
        value           nonuniform List<scalar> 6(0 0 1.91861e+07 4.85792e+07 5.41471e+07 4.24398e+07);
    }
    front
    {
        type            wedge;
    }
    back
    {
        type            wedge;
    }
}


    4 cells are actively yielding

elastoPlasticKirchhoff: RhieChowScaleFactor = 0.1
ExecutionTime = 7.5 s clockTime = 8 s

Coupling iteration 3 end

Coupling iteration = 4

    Time 0.0001, Corr 0, res = 0.000157693, rel res = 1.76512e-05, material res = 0.000124729, iters = 0
    Time 0.0001, Corr 100, res = 2.7386e-05, rel res = 3.80534e-05, material res = 4.50802e-05, iters = 0
    Time 0.0001, Corr 200, res = 3.01818e-05, rel res = 2.26801e-05, material res = 2.91704e-05, iters = 0
    Time 0.0001, Corr 300, res = 3.11515e-05, rel res = 1.38829e-05, material res = 1.81405e-05, iters = 0
    Time 0.0001, Corr 400, res = 3.14758e-05, rel res = 8.52898e-06, material res = 1.11828e-05, iters = 0
    Time 0.0001, Corr 500, res = 3.14522e-05, rel res = 5.23851e-06, material res = 6.87584e-06, iters = 0
    Time 0.0001, Corr 600, res = 3.12281e-05, rel res = 3.21403e-06, material res = 4.22171e-06, iters = 0
    Time 0.0001, Corr 700, res = 3.08892e-05, rel res = 1.96936e-06, material res = 2.5888e-06, iters = 0
    Time 0.0001, Corr 800, res = 3.04854e-05, rel res = 1.205e-06, material res = 1.58538e-06, iters = 0
    Time 0.0001, Corr 900, res = 3.00508e-05, rel res = 7.3623e-07, material res = 9.69526e-07, iters = 0
    Time 0.0001, Corr 1000, res = 2.95996e-05, rel res = 4.49128e-07, material res = 5.92033e-07, iters = 0
    Time 0.0001, Corr 1100, res = 2.91464e-05, rel res = 2.73543e-07, material res = 3.6096e-07, iters = 0
    Time 0.0001, Corr 1200, res = 2.86949e-05, rel res = 1.6632e-07, material res = 2.19716e-07, iters = 0
    Time 0.0001, Corr 1300, res = 2.825e-05, rel res = 1.00944e-07, material res = 1.33511e-07, iters = 0
    Time 0.0001, Corr 1400, res = 2.7812e-05, rel res = 6.11488e-08, material res = 8.09795e-08, iters = 0
    Time 0.0001, Corr 1500, res = 2.73839e-05, rel res = 3.69667e-08, material res = 4.90218e-08, iters = 0
    Time 0.0001, Corr 1600, res = 2.69647e-05, rel res = 2.2299e-08, material res = 2.96142e-08, iters = 0
    Time 0.0001, Corr 1700, res = 2.6555e-05, rel res = 1.34196e-08, material res = 1.78502e-08, iters = 0
    Time 0.0001, Corr 1800, res = 2.61541e-05, rel res = 8.05547e-09, material res = 1.07335e-08, iters = 0
    Time 0.0001, Corr 1900, res = 2.57618e-05, rel res = 4.82215e-09, material res = 6.43738e-09, iters = 0
    Time 0.0001, Corr 2000, res = 2.53782e-05, rel res = 2.87793e-09, material res = 3.84987e-09, iters = 0
    Time 0.0001, Corr 2100, res = 2.50036e-05, rel res = 1.71189e-09, material res = 2.29528e-09, iters = 0
    Time 0.0001, Corr 2200, res = 2.46355e-05, rel res = 1.01455e-09, material res = 1.36376e-09, iters = 0
	The relative residual has converged
    Time 0.0001, Corr 2203, res = 2.46248e-05, rel res = 9.98693e-10, material res = 1.34255e-09, iters = 0

Updating the yield stress
    Max DEpsilonPEq is 0.145411
sigmaY_after dimensions      [1 -1 -2 0 0 0 0];

internalField   nonuniform List<scalar> 6(1.25e+09 1.25e+09 1.26894e+09 1.29804e+09 1.30343e+09 1.29167e+09);

boundaryField
{
    wireDownstream
    {
        type            calculated;
        value           uniform 1.25e+09;
    }
    wireUpstream
    {
        type            calculated;
        value           uniform 1.28962e+09;
    }
    wireTopContact
    {
        type            calculated;
        value           nonuniform List<scalar> 6(1.25e+09 1.25e+09 1.26894e+09 1.29804e+09 1.30343e+09 1.29167e+09);
    }
    front
    {
        type            wedge;
    }
    back
    {
        type            wedge;
    }
}


DSigmay dimensions      [1 -1 -2 0 0 0 0];

internalField   nonuniform List<scalar> 6(0 0 1.89438e+07 4.80383e+07 5.34275e+07 4.16687e+07);

boundaryField
{
    wireDownstream
    {
        type            calculated;
        value           uniform 0;
    }
    wireUpstream
    {
        type            calculated;
        value           uniform 3.96156e+07;
    }
    wireTopContact
    {
        type            calculated;
        value           nonuniform List<scalar> 6(0 0 1.89436e+07 4.80396e+07 5.34282e+07 4.16678e+07);
    }
    front
    {
        type            wedge;
    }
    back
    {
        type            wedge;
    }
}


    4 cells are actively yielding

elastoPlasticKirchhoff: RhieChowScaleFactor = 0.1
ExecutionTime = 9.83 s clockTime = 11 s

Coupling iteration 4 end

Coupling iteration = 5

    Time 0.0001, Corr 0, res = 0.000153998, rel res = 2.08254e-05, material res = 0.00011767, iters = 0
    Time 0.0001, Corr 100, res = 2.0476e-05, rel res = 3.46639e-05, material res = 4.04182e-05, iters = 0
    Time 0.0001, Corr 200, res = 2.04203e-05, rel res = 2.06357e-05, material res = 2.6469e-05, iters = 0
    Time 0.0001, Corr 300, res = 2.12454e-05, rel res = 1.26365e-05, material res = 1.65082e-05, iters = 0
    Time 0.0001, Corr 400, res = 2.15726e-05, rel res = 7.77034e-06, material res = 1.01908e-05, iters = 0
    Time 0.0001, Corr 500, res = 2.16282e-05, rel res = 4.77776e-06, material res = 6.27322e-06, iters = 0
    Time 0.0001, Corr 600, res = 2.15287e-05, rel res = 2.93479e-06, material res = 3.8562e-06, iters = 0
    Time 0.0001, Corr 700, res = 2.13362e-05, rel res = 1.80048e-06, material res = 2.36753e-06, iters = 0
    Time 0.0001, Corr 800, res = 2.1093e-05, rel res = 1.10311e-06, material res = 1.45171e-06, iters = 0
    Time 0.0001, Corr 900, res = 2.0823e-05, rel res = 6.74901e-07, material res = 8.88969e-07, iters = 0
    Time 0.0001, Corr 1000, res = 2.05389e-05, rel res = 4.12318e-07, material res = 5.43608e-07, iters = 0
    Time 0.0001, Corr 1100, res = 2.02511e-05, rel res = 2.51518e-07, material res = 3.31934e-07, iters = 0
    Time 0.0001, Corr 1200, res = 1.99626e-05, rel res = 1.53187e-07, material res = 2.02375e-07, iters = 0
    Time 0.0001, Corr 1300, res = 1.96784e-05, rel res = 9.31445e-08, material res = 1.23188e-07, iters = 0
    Time 0.0001, Corr 1400, res = 1.93968e-05, rel res = 5.65377e-08, material res = 7.48606e-08, iters = 0
    Time 0.0001, Corr 1500, res = 1.91213e-05, rel res = 3.42548e-08, material res = 4.54121e-08, iters = 0
    Time 0.0001, Corr 1600, res = 1.88504e-05, rel res = 2.07138e-08, material res = 2.74967e-08, iters = 0
    Time 0.0001, Corr 1700, res = 1.85864e-05, rel res = 1.24997e-08, material res = 1.6616e-08, iters = 0
    Time 0.0001, Corr 1800, res = 1.8327e-05, rel res = 7.5262e-09, material res = 1.00198e-08, iters = 0
    Time 0.0001, Corr 1900, res = 1.80734e-05, rel res = 4.52084e-09, material res = 6.02844e-09, iters = 0
    Time 0.0001, Corr 2000, res = 1.78244e-05, rel res = 2.70861e-09, material res = 3.61823e-09, iters = 0
    Time 0.0001, Corr 2100, res = 1.75813e-05, rel res = 1.61831e-09, material res = 2.16594e-09, iters = 0
	The relative residual has converged
    Time 0.0001, Corr 2193, res = 1.7359e-05, rel res = 9.99666e-10, material res = 1.34055e-09, iters = 0

Updating the yield stress
    Max DEpsilonPEq is 0.143665
sigmaY_after dimensions      [1 -1 -2 0 0 0 0];

internalField   nonuniform List<scalar> 6(1.25e+09 1.25e+09 1.26872e+09 1.29755e+09 1.30279e+09 1.29099e+09);

boundaryField
{
    wireDownstream
    {
        type            calculated;
        value           uniform 1.25e+09;
    }
    wireUpstream
    {
        type            calculated;
        value           uniform 1.28894e+09;
    }
    wireTopContact
    {
        type            calculated;
        value           nonuniform List<scalar> 6(1.25e+09 1.25e+09 1.26872e+09 1.29755e+09 1.30279e+09 1.29099e+09);
    }
    front
    {
        type            wedge;
    }
    back
    {
        type            wedge;
    }
}


DSigmay dimensions      [1 -1 -2 0 0 0 0];

internalField   nonuniform List<scalar> 6(0 0 1.87196e+07 4.75464e+07 5.2786e+07 4.099e+07);

boundaryField
{
    wireDownstream
    {
        type            calculated;
        value           uniform 0;
    }
    wireUpstream
    {
        type            calculated;
        value           uniform 3.89404e+07;
    }
    wireTopContact
    {
        type            calculated;
        value           nonuniform List<scalar> 6(0 0 1.87193e+07 4.75477e+07 5.27866e+07 4.09891e+07);
    }
    front
    {
        type            wedge;
    }
    back
    {
        type            wedge;
    }
}


    4 cells are actively yielding

elastoPlasticKirchhoff: RhieChowScaleFactor = 0.1
ExecutionTime = 12.15 s clockTime = 13 s

Coupling iteration 5 end

Max sigmaCauchyEq = 1.34704e+09
Max epsilonTrueEq = 0.141672


End

Removing the field sigmaY from the objectRegistry and setting the field pointer to NULL
Removing the field DSigmaY from the objectRegistry and setting the field pointer to NULL
Removing the field epsilonP from the objectRegistry and setting the field pointer to NULL
Removing the field DEpsilonP from the objectRegistry and setting the field pointer to NULL
Removing the field bEbarTrial from the objectRegistry and setting the field pointer to NULL
Removing the field bEbar from the objectRegistry and setting the field pointer to NULL
Removing the field DEpsilonPEq from the objectRegistry and setting the field pointer to NULL
Removing the field DLambda from the objectRegistry and setting the field pointer to NULL
Removing the field epsilonPEq from the objectRegistry and setting the field pointer to NULL
Removing the field activeYield from the objectRegistry and setting the field pointer to NULL
Removing the field plasticN from the objectRegistry and setting the field pointer to NULL
Removing the field sigmaHyd from the objectRegistry and setting the field pointer to NULL
