/*---------------------------------------------------------------------------*\
| =========                 |                                                 |
| \\      /  F ield         | OpenFOAM: The Open Source CFD Toolbox           |
|  \\    /   O peration     | Version:  4.1                                   |
|   \\  /    A nd           | Web:      www.OpenFOAM.org                      |
|    \\/     M anipulation  |                                                 |
\*---------------------------------------------------------------------------*/
Build  : 4.1
Exec   : CoCoNuT_pimpleFoam
Date   : Sep 24 2020
Time   : 10:01:42
Host   : "cfdclu27.ugent.be"
PID    : 6877
Case   : /lusers/temp/mathieu/PycharmProjects/coconut/tests/solver_wrappers/openfoam/test_41_pipeCyclic
nProcs : 1
sigFpe : Enabling floating point exception trapping (FOAM_SIGFPE).
fileModificationChecking : Monitoring run-time modified files using timeStampMaster
allowSystemOperations : Allowing user-supplied system call operations

// * * * * * * * * * * * * * * * * * * * * * * * * * * * * * * * * * * * * * //
Create time

Create mesh for time = 0.000000

Selecting dynamicFvMesh dynamicMotionSolverFvMesh
Selecting motion solver: displacementLaplacian
Selecting motion diffusion: inverseDistance
AMI: Creating addressing and weights between 1300 source faces and 250 target faces
AMI: Patch source sum(weights) min/max/average = 1, 1, 1
AMI: Patch target sum(weights) min/max/average = 1, 1, 1

PIMPLE: no residual control data found. Calculations will employ 4 corrector loops

Reading field p

Reading field U

Reading/calculating face flux field phi

Selecting incompressible transport model Newtonian
Selecting turbulence model type RAS
Selecting RAS turbulence model realizableKE
realizableKECoeffs
{
    Cmu             0.09;
    A0              4;
    C2              1.9;
    sigmak          1;
    sigmaEps        1.2;
}

No MRF models present

Reading/calculating face velocity Uf

No finite volume options present

Courant Number mean: 0.612001 max: 2.00006
surfaceRegion PRESSURE_walls:
    total faces  = 400
    total area   = 7.82172


wallShearStress wallShearStress:
    processing all wall patches

surfaceRegion TRACTION_walls:
    total faces  = 400
    total area   = 7.82172


Courant Number mean: 0.612001 max: 2.00006
0.000000

Time = 0.100000

#0  Foam::error::printStack(Foam::Ostream&) in "/cfdfile2/lusers/SL6.3/OpenFOAM/OpenFOAM-4.1/platforms/linux64IccDPInt32Opt/lib/libOpenFOAM.so"
#1  Foam::sigSegv::sigHandler(int) in "/cfdfile2/lusers/SL6.3/OpenFOAM/OpenFOAM-4.1/platforms/linux64IccDPInt32Opt/lib/libOpenFOAM.so"
#2  ? in "/lib64/libc.so.6"
#3  __dynamic_cast in "/usr/lib64/libstdc++.so.6"
#4  ? in "/cfdfile2/data/fm/mathieu/OpenFOAM/mathieu-4.1/platforms/linux64IccDPInt32Opt/bin/CoCoNuT_pimpleFoam"
#5  ? in "/cfdfile2/data/fm/mathieu/OpenFOAM/mathieu-4.1/platforms/linux64IccDPInt32Opt/bin/CoCoNuT_pimpleFoam"
#6  __libc_start_main in "/lib64/libc.so.6"
#7  ? in "/cfdfile2/data/fm/mathieu/OpenFOAM/mathieu-4.1/platforms/linux64IccDPInt32Opt/bin/CoCoNuT_pimpleFoam"
