*Heading
** Job name: Job-28 Model name: Model-1
** Generated by: Abaqus/CAE 6.14-1
*Preprint, echo=NO, model=NO, history=NO, contact=NO
**
** PARTS
**
*Part, name=Part-1
*Node
      1,           0., 0.000500000024
      2,           0., 0.000490000006
      3,           0., 0.000479999988
      4,           0., 0.000469999999
      5,           0., 0.00046000001
      6,           0., 0.000449999992
      7,           0., 0.000440000003
      8,           0., 0.000429999985
      9,           0., 0.000419999997
     10,           0., 0.000410000008
     11,           0., 0.00039999999
     12,           0., 0.000390000001
     13,           0., 0.000380000012
     14,           0., 0.000369999994
     15,           0., 0.000360000005
     16,           0., 0.000349999988
     17,           0., 0.000339999999
     18,           0., 0.00033000001
     19,           0., 0.000319999992
     20,           0., 0.000310000003
** ... 26656 like lines cut
*Element, type=CAX4R
    1,     1,     2,   353,   352
    2,     2,     3,   354,   353
    3,     3,     4,   355,   354
    4,     4,     5,   356,   355
    5,     5,     6,   357,   356
    6,     6,     7,   358,   357
    7,     7,     8,   359,   358
    8,     8,     9,   360,   359
    9,     9,    10,   361,   360
   10,    10,    11,   362,   361
   11,    11,    12,   363,   362
   12,    12,    13,   364,   363
   13,    13,    14,   365,   364
   14,    14,    15,   366,   365
   15,    15,    16,   367,   366
   16,    16,    17,   368,   367
   17,    17,    18,   369,   368
   18,    18,    19,   370,   369
   19,    19,    20,   371,   370
   20,    20,    21,   372,   371
** ... 26230 like lines cut
*Nset, nset=Set-1, generate
     1,  26676,      1
*Elset, elset=Set-1, generate
     1,  26250,      1
** Section: Section-1
*Solid Section, elset=Set-1, material=Material-1
,
*End Part
**  
**
** ASSEMBLY
**
*Assembly, name=Assembly
**  
*Instance, name=Part-1-1, part=Part-1
*End Instance
**  
*Nset, nset=Set-1, instance=Part-1-1, generate
   351,  26676,    351
*Elset, elset=Set-1, instance=Part-1-1, generate
   350,  26250,    350
*Nset, nset=Set-5, instance=Part-1-1, generate
   351,  26676,    351
*Elset, elset=Set-5, instance=Part-1-1, generate
   350,  26250,    350
*Nset, nset=WALLOUTSIDE0, instance=Part-1-1, generate
 26571,  26676,      1
*Nset, nset=WALLOUTSIDE1, instance=Part-1-1, generate
 26376,  26571,      1
*Nset, nset=WALLOUTSIDE2, instance=Part-1-1, generate
 26326,  26376,      1
*Elset, elset=_MOVINGSURFACE0_S3, internal, instance=Part-1-1, generate
 26146,  26250,      1
*Surface, type=ELEMENT, name=MOVINGSURFACE0
_MOVINGSURFACE0_S3, S3
*Elset, elset=_MOVINGSURFACE1_S3, internal, instance=Part-1-1, generate
 25951,  26145,      1
*Surface, type=ELEMENT, name=MOVINGSURFACE1
_MOVINGSURFACE1_S3, S3
*Elset, elset=_MOVINGSURFACE2_S3, internal, instance=Part-1-1, generate
 25901,  25950,      1
*Surface, type=ELEMENT, name=MOVINGSURFACE2
_MOVINGSURFACE2_S3, S3
*Elset, elset=_Surf-1_S4, internal, instance=Part-1-1, generate
     1,  25901,    350
*Surface, type=ELEMENT, name=Surf-1
_Surf-1_S4, S4
*Elset, elset=_Surf-5_S4, internal, instance=Part-1-1, generate
     1,  25901,    350
*Surface, type=ELEMENT, name=Surf-5
_Surf-5_S4, S4
*End Assembly
** 
** MATERIALS
** 
*Material, name=Material-1
*Density
7800.,
*Elastic
 1.17e+11, 0.3
*Plastic
 1.25e+09,  0.
 1.28e+09, 0.1
 1.31e+09, 0.2
 1.37e+09, 0.4
 1.43e+09, 0.6
 1.49e+09, 0.8
 1.55e+09,  1.
 1.61e+09, 1.2
 1.67e+09, 1.4
 1.73e+09, 1.6
 1.79e+09, 1.8
 1.85e+09,  2.
 1.91e+09, 2.2
 1.97e+09, 2.4
 2.03e+09, 2.6
 2.09e+09, 2.8
 2.15e+09,  3.
 2.21e+09, 3.2
 2.27e+09, 3.4
 2.33e+09, 3.6
** ... 32 like lines cut
** ----------------------------------------------------------------
** 
** STEP: Step-1
** 
*Step, name=Step-1, nlgeom=NO, inc=50
*Static
1e-06, 1e-06, 1e-10, 1e-06
** 
** LOADS
** 
** Name: DistributedPressure0   Type: Pressure
*Dsload, op=NEW
MOVINGSURFACE0, PNU, 1.
** Name: DistributedPressure1   Type: Pressure
*Dsload, op=NEW
MOVINGSURFACE1, PNU, 1.
** Name: DistributedPressure2   Type: Pressure
*Dsload, op=NEW
MOVINGSURFACE2, PNU, 1.
** Name: DistributedShear0   Type: Surface traction
*Dsload, op=NEW
MOVINGSURFACE0, TRVECNU, 1., 1., 0., 0.
** Name: DistributedShear1   Type: Surface traction
*Dsload, op=NEW
MOVINGSURFACE1, TRVECNU, 1., 1., 0., 0.
** Name: DistributedShear2   Type: Surface traction
*Dsload, op=NEW
MOVINGSURFACE2, TRVECNU, 1., 1., 0., 0.
** 
** OUTPUT REQUESTS
** 
*Restart, write, frequency=0
** 
** FIELD OUTPUT: F-Output-0
** 
*Output, field, frequency=99999
*Node Output, nset=WALLOUTSIDE0
COORD, U
** 
** FIELD OUTPUT: F-Output-1
** 
*Node Output, nset=WALLOUTSIDE1
COORD, U
** 
** FIELD OUTPUT: F-Output-2
** 
*Node Output, nset=WALLOUTSIDE2
COORD, U
** 
** FIELD OUTPUT: F-Output-4
** 
*Output, field, variable=PRESELECT, frequency=99999
** 
** HISTORY OUTPUT: H-Output-1
** 
*Output, history, variable=PRESELECT, frequency=99999
*End Step
