*Heading
 wireNotDeform
** Job name: wireNotDeform Model name: Model-1
** Generated by: Abaqus/CAE 6.14-1
*Preprint, echo=NO, model=NO, history=NO, contact=NO
**
** PARTS
**
*Part, name=Part-1
*Node
      1,           0., 0.000500000024
      2,           0., 0.00045000005
      3,           0., 0.000400000048
      4,           0., 0.000350000046
      5,           0., 0.000300000043
      6,           0., 0.000250000041
      7,           0., 0.000200000039
      8,           0., 0.000150000036
      9,           0., 0.000100000034
     10,           0., 5.00000351e-05
     11,           0., 3.51459938e-11
     12,           0., -4.9999966e-05
     13,           0., -9.99999684e-05
     14,           0., -0.000149999963
     15,           0., -0.000199999966
     16,           0., -0.000249999954
     17,           0., -0.000299999956
     18,           0., -0.000349999958
     19,           0., -0.000399999961
     20,           0., -0.000449999963
** ... 1116 like lines cut
*Element, type=CAX4R
   1,    1,    2,   73,   72
   2,    2,    3,   74,   73
   3,    3,    4,   75,   74
   4,    4,    5,   76,   75
   5,    5,    6,   77,   76
   6,    6,    7,   78,   77
   7,    7,    8,   79,   78
   8,    8,    9,   80,   79
   9,    9,   10,   81,   80
  10,   10,   11,   82,   81
  11,   11,   12,   83,   82
  12,   12,   13,   84,   83
  13,   13,   14,   85,   84
  14,   14,   15,   86,   85
  15,   15,   16,   87,   86
  16,   16,   17,   88,   87
  17,   17,   18,   89,   88
  18,   18,   19,   90,   89
  19,   19,   20,   91,   90
  20,   20,   21,   92,   91
** ... 1030 like lines cut
*Nset, nset=Set-1, generate
    1,  1136,     1
*Elset, elset=Set-1, generate
    1,  1050,     1
** Section: Section-1
*Solid Section, elset=Set-1, material=Steel
,
*End Part
**  
**
** ASSEMBLY
**
*Assembly, name=Assembly
**  
*Instance, name=Part-1-1, part=Part-1
*End Instance
**  
*Nset, nset=Set-4, instance=Part-1-1, generate
   71,  1136,    71
*Elset, elset=Set-4, instance=Part-1-1, generate
   70,  1050,    70
*Nset, nset=WALLOUTSIDE0, instance=Part-1-1, generate
 1115,  1136,     1
*Nset, nset=WALLOUTSIDE1, instance=Part-1-1, generate
 1076,  1115,     1
*Nset, nset=WALLOUTSIDE2, instance=Part-1-1, generate
 1066,  1076,     1
*Elset, elset=_Inlet_S2, internal, instance=Part-1-1, generate
   70,  1050,    70
*Surface, type=ELEMENT, name=Inlet
_Inlet_S2, S2
*Elset, elset=_MOVINGSURFACE0_S3, internal, instance=Part-1-1, generate
 1030,  1050,     1
*Surface, type=ELEMENT, name=MOVINGSURFACE0
_MOVINGSURFACE0_S3, S3
*Elset, elset=_MOVINGSURFACE1_S3, internal, instance=Part-1-1, generate
  991,  1029,     1
*Surface, type=ELEMENT, name=MOVINGSURFACE1
_MOVINGSURFACE1_S3, S3
*Elset, elset=_MOVINGSURFACE2_S3, internal, instance=Part-1-1, generate
 981,  990,    1
*Surface, type=ELEMENT, name=MOVINGSURFACE2
_MOVINGSURFACE2_S3, S3
*Elset, elset=_Outlet_S4, internal, instance=Part-1-1, generate
   1,  981,   70
*Surface, type=ELEMENT, name=Outlet
_Outlet_S4, S4
*Elset, elset=_Surf-6_S4, internal, instance=Part-1-1, generate
   1,  981,   70
*Surface, type=ELEMENT, name=Surf-6
_Surf-6_S4, S4
*End Assembly
** 
** MATERIALS
** 
*Material, name=Steel
*Density
7800.,
*Elastic
 1.17e+11, 0.3
*Plastic
 1.25e+09,  0.
 1.28e+09, 0.1
 1.31e+09, 0.2
 1.37e+09, 0.4
 1.43e+09, 0.6
 1.49e+09, 0.8
 1.55e+09,  1.
** ----------------------------------------------------------------
** 
** STEP: Step-1
** 
*Step, name=Step-1, nlgeom=YES, inc=1
*Static
1., 1., 0.0001, 1.
** 
** BOUNDARY CONDITIONS
** 
** Name: BC-1 Type: Displacement/Rotation
*Boundary
Set-4, 1, 1
Set-4, 2, 2
Set-4, 6, 6
** 
** LOADS
** 
** Name: DistributedPressure0   Type: Pressure
*Dsload, op=NEW
MOVINGSURFACE0, PNU, 1.
** Name: DistributedPressure1   Type: Pressure
*Dsload, op=NEW
MOVINGSURFACE1, PNU, 1.
** Name: DistributedPressure2   Type: Pressure
*Dsload, op=NEW
MOVINGSURFACE2, PNU, 1.
** Name: DistributedShear0   Type: Surface traction
*Dsload, op=NEW
MOVINGSURFACE0, TRVECNU, 1., 1., 0., 0.
** Name: DistributedShear1   Type: Surface traction
*Dsload, op=NEW
MOVINGSURFACE1, TRVECNU, 1., 1., 0., 0.
** Name: DistributedShear2   Type: Surface traction
*Dsload, op=NEW
MOVINGSURFACE2, TRVECNU, 1., 1., 0., 0.
** Name: Pull   Type: Pressure
*Dsload, op=NEW
Surf-6, P, -3.01358e+08
** 
** OUTPUT REQUESTS
** 
*Restart, write, frequency=0
** 
** FIELD OUTPUT: F-Output-0
** 
*Output, field, frequency=99999
*Node Output, nset=WALLOUTSIDE0
COORD, U
** 
** FIELD OUTPUT: F-Output-1
** 
*Node Output, nset=WALLOUTSIDE1
COORD, U
** 
** FIELD OUTPUT: F-Output-2
** 
*Node Output, nset=WALLOUTSIDE2
COORD, U
** 
** FIELD OUTPUT: F-Output-4
** 
*Output, field, variable=PRESELECT, frequency=99999
** 
** HISTORY OUTPUT: H-Output-1
** 
*Output, history, variable=PRESELECT, frequency=99999
*End Step
