/apps/RHEL8/ANSYS/2024R2/ansys_inc/v242/fluent/fluent24.2.0/bin/fluent -r24.2.0 2ddp -g -i case_1.jou
/apps/RHEL8/ANSYS/2024R2/ansys_inc/v242/fluent/fluent24.2.0/cortex/lnamd64/cortex.24.2.0 -f fluent -g -i case_1.jou (fluent "2ddp -pdefault  -host -r24.2.0 -t1 -mpi=intel -path/apps/RHEL8/ANSYS/2024R2/ansys_inc/v242/fluent -ssh")

Opening input/output transcript to file "/cfdfile1/data/fm/victor/Software/coconut/pc_development/2D_constrained/Alexiades/CFD_1/fluent-20241228-010046-1761872.trn".
Auto-Transcript Start Time:  01:00:46, 28 Dec 2024 
/apps/RHEL8/ANSYS/2024R2/ansys_inc/v242/fluent/fluent24.2.0/bin/fluent -r24.2.0 2ddp -pdefault -host -t1 -mpi=intel -path/apps/RHEL8/ANSYS/2024R2/ansys_inc/v242/fluent -ssh -cx cfdclu32.ugent.be:33739:40593
Starting /apps/RHEL8/ANSYS/2024R2/ansys_inc/v242/fluent/fluent24.2.0/lnamd64/2ddp_host/fluent.24.2.0 host -cx cfdclu32.ugent.be:33739:40593 "(list (rpsetvar (QUOTE parallel/function) "fluent 2ddp -flux -node -r24.2.0 -t1 -pdefault -mpi=intel -ssh") (rpsetvar (QUOTE parallel/rhost) "") (rpsetvar (QUOTE parallel/ruser) "") (rpsetvar (QUOTE parallel/nprocs_string) "1") (rpsetvar (QUOTE parallel/auto-spawn?) #t) (rpsetvar (QUOTE parallel/trace-level) 0) (rpsetvar (QUOTE parallel/remote-shell) 1) (rpsetvar (QUOTE parallel/path) "/apps/RHEL8/ANSYS/2024R2/ansys_inc/v242/fluent") (rpsetvar (QUOTE parallel/hostsfile) "") (rpsetvar (QUOTE gpuapp/devices) ""))"

              Welcome to ANSYS Fluent 2024 R2

              Copyright 1987-2024 ANSYS, Inc. All Rights Reserved.
              Unauthorized use, distribution or duplication is prohibited.
              This product is subject to U.S. laws governing export and re-export.
              For full Legal Notice, see documentation.

Build Time: May 13 2024 11:01:44 EDT  Build Id: 10192  
 
Connected License Server List:	1055@157.193.231.193

*********************************************
Info: Your license enables 4-way parallel execution.
For faster simulations, please start the application with the appropriate parallel options.
*********************************************


     --------------------------------------------------------------
     This is an academic version of ANSYS FLUENT. Usage of this product
     license is limited to the terms and conditions specified in your ANSYS
     license form, additional terms section.
     --------------------------------------------------------------
Host spawning Node 0 on machine "cfdclu32.ugent.be" (unix).
/apps/RHEL8/ANSYS/2024R2/ansys_inc/v242/fluent/fluent24.2.0/bin/fluent -r24.2.0 2ddp -flux -node -t1 -pdefault -mpi=intel -ssh -mport 157.193.126.32:157.193.126.32:36561:0
Starting /apps/RHEL8/ANSYS/2024R2/ansys_inc/v242/fluent/fluent24.2.0/multiport/mpi/lnamd64/intel2021/bin/mpirun --rsh=ssh -f /tmp/fluent-appfile.victor.1762442 -genv I_MPI_FABRICS shm -genv FLUENT_ARCH lnamd64 -genv I_MPI_DEBUG 0 -genv I_MPI_ADJUST_GATHERV 3 -genv I_MPI_ADJUST_ALLREDUCE 2 -genv I_MPI_PLATFORM auto -genv PYTHONHOME /apps/RHEL8/ANSYS/2024R2/ansys_inc/v242/fluent/fluent24.2.0/../../commonfiles/CPython/3_10/linx64/Release/python -genv FLUENT_PROD_DIR /apps/RHEL8/ANSYS/2024R2/ansys_inc/v242/fluent/fluent24.2.0 -genv FLUENT_AFFINITY 0 -genv I_MPI_PIN enable -genv KMP_AFFINITY disabled -n 1 /apps/RHEL8/ANSYS/2024R2/ansys_inc/v242/fluent/fluent24.2.0/lnamd64/2ddp_node/fluent_mpi.24.2.0 node -mpiw intel -pic shmem -mport 157.193.126.32:157.193.126.32:36561:0

-------------------------------------------------------------------------------
ID    Hostname           Core  O.S.      PID      Vendor                      
-------------------------------------------------------------------------------
n0    cfdclu32.ugent.be  1/32  Linux-64  1762522  INTEL(R) XEON(R) GOLD 6526Y 
host  cfdclu32.ugent.be        Linux-64  1762090  INTEL(R) XEON(R) GOLD 6526Y 

MPI Option Selected: intel
-------------------------------------------------------------------------------

Cleanup script file is /cfdfile1/data/fm/victor/Software/coconut/pc_development/2D_constrained/Alexiades/CFD_1/cleanup-fluent-cfdclu32.ugent.be-1762090.sh

Posting ANSYS Product Improvement Program startup data
Done.

Reading journal file case_1.jou...

> file set-batch-options n n n

> (enable-dynamic-mesh-node-ids #t)
()


> ;file start "transcript_setup.txt"
file read-case 2D_solid_bl.msh

Reading "2D_solid_bl.msh"...

Buffering for file scan...

  282058 nodes.
     313 mixed wall faces, zone  3.
     313 mixed wall faces, zone  4.
Warning: Reversing 313 faces, zone  4.
     100 mixed wall faces, zone  5.
Warning: Reversing 100 faces, zone  5.
    1000 mixed wall faces, zone  6.
  840719 mixed interior faces, zone  8.
  560388 mixed cells, zone  2.

Building...
     mesh
     materials,
     interface,
     domains,
     zones,
	default-interior
	boundary
	side
	top
	bottom
	fluid
     parallel,
Done.

> grid modify-zones zone-type fluid fluid

> 
adjoint/                parallel/               server/
define/                 parametric-study/       solve/
display/                plot/                   surface/
exit                    preferences/            views/
file/                   print-license-usage
mesh/                   report/

> define user-defined user-defined-memory 12

> 
adjoint/                parallel/               server/
define/                 parametric-study/       solve/
display/                plot/                   surface/
exit                    preferences/            views/
file/                   print-license-usage
mesh/                   report/

> define models unsteady-2nd-order y
Pressure-Velocity Coupling scheme is set to SIMPLE

> define models viscous laminar y

> define models solver pressure-based y

> solve set equations flow n

> define models energy y n n n y

> define models solidification-melting? no

> 
adjoint/                parallel/               server/
define/                 parametric-study/       solve/
display/                plot/                   surface/
exit                    preferences/            views/
file/                   print-license-usage
mesh/                   report/

> define materials copy fluid air pcm

pcm copied from database.


> define materials change-create pcm ,pcm is a fluid
 yes 
Density
constant 7500 
yes 
Cp (Specific Heat)
constant 200 
yes 
Thermal Conductivity
constant 60 
yes 
Viscosity
constant 0.006 
no yes 
Thermal Expansion Coefficient
method is constant
2.67e-4 
no

> 
adjoint/                parallel/               server/
define/                 parametric-study/       solve/
display/                plot/                   surface/
exit                    preferences/            views/
file/                   print-license-usage
mesh/                   report/

> define boundary-conditions fluid (fluid)
, y pcm n n n n , n , n y n

> define boundary-conditions wall (bottom top side boundary)
bottom n 0 n 0 n n n 0 y motion-bc-stationary n n ,

> define boundary-conditions wall (bottom top side boundary)
side n 0 n 0 n y temperature n 505 y motion-bc-stationary n n ,

> define boundary-conditions wall (bottom top side boundary)
top n 0 n 0 n n n 0 y motion-bc-stationary n n ,

> define boundary-conditions wall (bottom top side boundary)
boundary n 0 n 0 n y temperature n 505 y motion-bc-stationary n n ,

> 
adjoint/                parallel/               server/
define/                 parametric-study/       solve/
display/                plot/                   surface/
exit                    preferences/            views/
file/                   print-license-usage
mesh/                   report/

> define operating-conditions operating-pressure 0

> define operating-conditions gravity n

> 
adjoint/                parallel/               server/
define/                 parametric-study/       solve/
display/                plot/                   surface/
exit                    preferences/            views/
file/                   print-license-usage
mesh/                   report/

> solve monitors residual check-convergence y

> solve monitors residual convergence-criteria 1e-14

> 
adjoint/                parallel/               server/
define/                 parametric-study/       solve/
display/                plot/                   surface/
exit                    preferences/            views/
file/                   print-license-usage
mesh/                   report/

> solve set discretization-scheme temperature 1

> solve set gradient-scheme  Options:
 Green-Gauss Cell-Based 
 Green-Gauss Node-Based 
 Least-Squares Cell-Based Default 
n y

> ; SIMPLE (20) - PISO (22) - coupled (24)
solve set p-v-coupling 22

> solve set under-relaxation temperature 0.9

> 
adjoint/                parallel/               server/
define/                 parametric-study/       solve/
display/                plot/                   surface/
exit                    preferences/            views/
file/                   print-license-usage
mesh/                   report/

> ;Initialise solid at melting temperature
solve initialize set-defaults temperature 505

> solve initialize initialize-flow

> 
adjoint/                parallel/               server/
define/                 parametric-study/       solve/
display/                plot/                   surface/
exit                    preferences/            views/
file/                   print-license-usage
mesh/                   report/

> define dynamic-mesh dynamic-mesh y n n n n

Warning: disabling second-order variable time step size formulation as is not supported with dynamic mesh.
> define dynamic-mesh controls smoothing y

> define dynamic-mesh controls smoothing-parameters smoothing-method spring

> define dynamic-mesh controls smoothing-parameters constant-factor 1

> ; NOTE: bnd-node-relaxation 0 prevents deforming boundary nodes from moving
;define dynamic-mesh controls smoothing-parameters bnd-node-relaxation 1
;define dynamic-mesh controls smoothing-parameters bnd-stiffness-factor 1
define dynamic-mesh controls smoothing-parameters skew-smooth-niter 10

> define dynamic-mesh controls smoothing-parameters skew-smooth-cell-skew-max 0.7

> define dynamic-mesh controls smoothing-parameters max-iter 20

> define dynamic-mesh controls smoothing-parameters spring-on-all-elements y

> define dynamic-mesh controls layering n

> define dynamic-mesh controls remeshing y

     prism and sizing settings,
> define dynamic-mesh controls remeshing-parameters unified-remeshing? y

> 
adjoint/                parallel/               server/
define/                 parametric-study/       solve/
display/                plot/                   surface/
exit                    preferences/            views/
file/                   print-license-usage
mesh/                   report/

> ; Last option below: exclude mesh motion in boundary conditions? y
; Third option below: use Laplace instead of spring smoothing? n
define dynamic-mesh zones create top deforming faceted n y n y y y y n y

> define dynamic-mesh zones create bottom deforming faceted n y n y y y y n y

> define dynamic-mesh zones create fluid deforming y all y y

> 
adjoint/                parallel/               server/
define/                 parametric-study/       solve/
display/                plot/                   surface/
exit                    preferences/            views/
file/                   print-license-usage
mesh/                   report/

> file write-case-data 2D_solid.cas.h5
Fast-loading "/apps/RHEL8/ANSYS/2024R2/ansys_inc/v242/fluent/fluent24.2.0/addons/afd/lib/hdfio.bin"
Done.

Writing to cfdclu32.ugent.be:"/cfdfile1/data/fm/victor/Software/coconut/pc_development/2D_constrained/Alexiades/CFD_1/2D_solid.cas.h5" in NODE0 mode and compression level 1 ...
Grouping cells for Laplace smoothing ...
      560388 cells,     1 zone  ...
      842445 faces,     5 zones ...
      282058 nodes,     1 zone  ...
  Done.
Done.

Writing to cfdclu32.ugent.be:"/cfdfile1/data/fm/victor/Software/coconut/pc_development/2D_constrained/Alexiades/CFD_1/2D_solid.dat.h5" in NODE0 mode and compression level 1 ...
  Writing results.
Done.

> exit

Posting ANSYS Product Improvement Program performance data 
Done.
Auto-Transcript Stop Time:  01:01:11, 28 Dec 2024 
Total Transcript Time: 0 Minute 25 Second.

Automatic transcript closed.
