/*---------------------------------------------------------------------------*\
| =========                 |                                                 |
| \\      /  F ield         | OpenFOAM: The Open Source CFD Toolbox           |
|  \\    /   O peration     | Version:  4.1                                   |
|   \\  /    A nd           | Web:      www.OpenFOAM.org                      |
|    \\/     M anipulation  |                                                 |
\*---------------------------------------------------------------------------*/
Build  : 4.1
Exec   : CoCoNuT_pimpleFoam -parallel
Date   : Sep 02 2020
Time   : 13:48:05
Host   : "cfdclu27.ugent.be"
PID    : 27502
Case   : /cfdfile2/data/fm/mathieu/PycharmProjects/coconut/coconut/test_examples/tube_OpenFoam3d_abaqus3d/Test_Writing_pointDisplacementFromSourceCode
nProcs : 2
Slaves : 1("cfdclu27.ugent.be.27503")
Pstream initialized with:
    floatTransfer      : 0
    nProcsSimpleSum    : 0
    commsType          : nonBlocking
    polling iterations : 0
sigFpe : Enabling floating point exception trapping (FOAM_SIGFPE).
fileModificationChecking : Monitoring run-time modified files using timeStampMaster
allowSystemOperations : Allowing user-supplied system call operations

// * * * * * * * * * * * * * * * * * * * * * * * * * * * * * * * * * * * * * //
Create time

Create mesh for time = 0.000000

Selecting dynamicFvMesh dynamicMotionSolverFvMesh
Selecting motion solver: displacementLaplacian
Selecting motion diffusion: inverseDistance

PIMPLE: Operating solver in PISO mode

Reading field p

Reading field U

Reading/calculating face flux field phi

Selecting incompressible transport model Newtonian
Selecting turbulence model type RAS
Selecting RAS turbulence model kEpsilon
kEpsilonCoeffs
{
    Cmu             0.09;
    C1              1.44;
    C2              1.92;
    C3              -0.33;
    sigmak          1;
    sigmaEps        1.3;
}

No MRF models present

Reading/calculating face velocity Uf

No finite volume options present

Courant Number mean: 0 max: 0
wallShearStress wallShearStress:
    processing wall patches: 
        mantle

Reading pointDisplacement

prev_runTime
[1] 
[1] 
[1] --> FOAM FATAL IO ERROR: 
[1] cannot find file
[1] 
[1] file: /cfdfile2/data/fm/mathieu/PycharmProjects/coconut/coconut/test_examples/tube_OpenFoam3d_abaqus3d/Test_Writing_pointDisplacementFromSourceCode/processor1/pointDisplacement_Next at line 0.
[1] 
[1]     From function regIOobject::readStream()
[1]     in file db/regIOobject/regIOobjectRead.C at line 72.
[1] 
FOAM parallel run exiting
[1] 
[0] 
[0] 
[0] --> FOAM FATAL IO ERROR: 
[0] cannot find file
[0] 
[0] file: application called MPI_Abort(MPI_COMM_WORLD, 1) - process 1
/cfdfile2/data/fm/mathieu/PycharmProjects/coconut/coconut/test_examples/tube_OpenFoam3d_abaqus3d/Test_Writing_pointDisplacementFromSourceCode/processor0/pointDisplacement_Next at line 0.
[0] 
[0]     From function regIOobject::readStream()
[0]     in file db/regIOobject/regIOobjectRead.C at line 72.
[0] 
FOAM parallel run exiting
[0] 
application called MPI_Abort(MPI_COMM_WORLD, 1) - process 0
el run exiting
application called MPI_Abort(MPI_COMM_WORLD, 1) - process 1
[0] 
application called MPI_Abort(MPI_COMM_WORLD, 1) - process 0
