/*---------------------------------------------------------------------------*\
| =========                 |                                                 |
| \\      /  F ield         | OpenFOAM: The Open Source CFD Toolbox           |
|  \\    /   O peration     | Version:  4.1                                   |
|   \\  /    A nd           | Web:      www.OpenFOAM.org                      |
|    \\/     M anipulation  |                                                 |
\*---------------------------------------------------------------------------*/
Build  : 4.1
Exec   : decomposePar
Date   : Sep 02 2020
Time   : 13:52:12
Host   : "cfdclu27.ugent.be"
PID    : 27740
Case   : /cfdfile2/data/fm/mathieu/PycharmProjects/coconut/coconut/test_examples/tube_OpenFoam3d_abaqus3d/Test_Writing_pointDisplacementFromSourceCode
nProcs : 1
sigFpe : Enabling floating point exception trapping (FOAM_SIGFPE).
fileModificationChecking : Monitoring run-time modified files using timeStampMaster
allowSystemOperations : Allowing user-supplied system call operations

// * * * * * * * * * * * * * * * * * * * * * * * * * * * * * * * * * * * * * //
Create time



Decomposing mesh region0

Create mesh

Calculating distribution of cells
Selecting decompositionMethod simple

Finished decomposition in 0.01 s

Calculating original mesh data

Distributing cells to processors

Distributing faces to processors

Distributing points to processors

Constructing processor meshes

Processor 0
    Number of cells = 3072
    Number of faces shared with processor 1 = 128
    Number of processor patches = 1
    Number of processor faces = 128
    Number of boundary faces = 896

Processor 1
    Number of cells = 3072
    Number of faces shared with processor 0 = 128
    Number of processor patches = 1
    Number of processor faces = 128
    Number of boundary faces = 896

Number of processor faces = 128
Max number of cells = 3072 (0% above average 3072)
Max number of processor patches = 1 (0% above average 1)
Max number of faces between processors = 128 (0% above average 128)

Time = 0.000000

Processor 0: field transfer
Processor 1: field transfer

End

