/*---------------------------------------------------------------------------*\
| =========                 |                                                 |
| \\      /  F ield         | OpenFOAM: The Open Source CFD Toolbox           |
|  \\    /   O peration     | Version:  4.1                                   |
|   \\  /    A nd           | Web:      www.OpenFOAM.org                      |
|    \\/     M anipulation  |                                                 |
\*---------------------------------------------------------------------------*/
Build  : 4.1
Exec   : CoCoNuT_pimpleFoam -parallel
Date   : Sep 07 2020
Time   : 11:52:56
Host   : "cfdclu27.ugent.be"
PID    : 44351
Case   : /cfdfile2/data/fm/mathieu/PycharmProjects/coconut/coconut/test_examples/tube_OpenFoam3d_abaqus3d/Test_Writing_pointDisplacementFromSourceCode
nProcs : 2
Slaves : 1("cfdclu27.ugent.be.44352")
Pstream initialized with:
    floatTransfer      : 0
    nProcsSimpleSum    : 0
    commsType          : nonBlocking
    polling iterations : 0
sigFpe : Enabling floating point exception trapping (FOAM_SIGFPE).
fileModificationChecking : Monitoring run-time modified files using timeStampMaster
allowSystemOperations : Allowing user-supplied system call operations

// * * * * * * * * * * * * * * * * * * * * * * * * * * * * * * * * * * * * * //
Create time

Create mesh for time = 0.000000

Selecting dynamicFvMesh dynamicMotionSolverFvMesh
Selecting motion solver: displacementLaplacian
Selecting motion diffusion: inverseDistance

PIMPLE: Operating solver in PISO mode

Reading field p

Reading field U

Reading/calculating face flux field phi

Selecting incompressible transport model Newtonian
Selecting turbulence model type RAS
Selecting RAS turbulence model kEpsilon
kEpsilonCoeffs
{
    Cmu             0.09;
    C1              1.44;
    C2              1.92;
    C3              -0.33;
    sigmak          1;
    sigmaEps        1.3;
}

No MRF models present

Reading/calculating face velocity Uf

No finite volume options present

Courant Number mean: 0 max: 0
wallShearStress wallShearStress:
    processing wall patches: 
        mantle

Courant Number mean: 0 max: 0
0.000000

Time = 0.000010

Reading pointDisplacement

prev_runTime0.000000
GAMG:  Solving for cellDisplacementx, Initial residual = 0, Final residual = 0, No Iterations 0
GAMG:  Solving for cellDisplacementy, Initial residual = 1, Final residual = 0.0042820362, No Iterations 2
GAMG:  Solving for cellDisplacementz, Initial residual = 1, Final residual = 0.0045244946, No Iterations 2
PIMPLE: iteration 1
smoothSolver:  Solving for Ux, Initial residual = 1, Final residual = 1.0217399e-07, No Iterations 3
smoothSolver:  Solving for Uy, Initial residual = 0, Final residual = 0, No Iterations 0
smoothSolver:  Solving for Uz, Initial residual = 0, Final residual = 0, No Iterations 0
GAMG:  Solving for p, Initial residual = 1, Final residual = 0.0017996943, No Iterations 2
time step continuity errors : sum local = 8.3591397e-06, global = -3.0166735e-06, cumulative = -3.0166735e-06
GAMG:  Solving for p, Initial residual = 0.032381667, Final residual = 6.7300371e-08, No Iterations 8
time step continuity errors : sum local = 6.2745469e-10, global = 1.2465734e-10, cumulative = -3.0165488e-06
smoothSolver:  Solving for epsilon, Initial residual = 0.024176631, Final residual = 2.0972302e-06, No Iterations 2
smoothSolver:  Solving for k, Initial residual = 1, Final residual = 2.9972344e-06, No Iterations 3
ExecutionTime = 0.14 s  ClockTime = 0 s

wallShearStress wallShearStress write:
    writing field wallShearStress
    min/max(mantle) = (-0.0094791206 -0.00035796633 -0.000359405), (-0.0038311485 0.00035137702 0.00036383243)
writeObjects writeObjects1 write:
    writing object pointDisplacement
I get past the save

Courant Number mean: 0.23360846 max: 1.1395691
0.000010

Time = 0.000020

Reading pointDisplacement

prev_runTime0.000010
GAMG:  Solving for cellDisplacementx, Initial residual = 0, Final residual = 0, No Iterations 0
GAMG:  Solving for cellDisplacementy, Initial residual = 0.16777872, Final residual = 0.00060718475, No Iterations 2
GAMG:  Solving for cellDisplacementz, Initial residual = 0.035718288, Final residual = 0.0002798838, No Iterations 2
PIMPLE: iteration 1
smoothSolver:  Solving for Ux, Initial residual = 0.86298044, Final residual = 5.3814402e-07, No Iterations 3
smoothSolver:  Solving for Uy, Initial residual = 0.33931281, Final residual = 1.225685e-07, No Iterations 3
smoothSolver:  Solving for Uz, Initial residual = 0.31459016, Final residual = 5.5932083e-06, No Iterations 2
GAMG:  Solving for p, Initial residual = 0.0083183327, Final residual = 3.1607387e-05, No Iterations 4
time step continuity errors : sum local = 2.8805968e-07, global = 2.1061256e-08, cumulative = -2.9954876e-06
GAMG:  Solving for p, Initial residual = 0.0012653535, Final residual = 4.5082594e-08, No Iterations 7
time step continuity errors : sum local = 4.1061214e-10, global = 3.679819e-10, cumulative = -2.9951196e-06
smoothSolver:  Solving for epsilon, Initial residual = 0.0050034386, Final residual = 6.0375293e-08, No Iterations 2
smoothSolver:  Solving for k, Initial residual = 0.10267149, Final residual = 1.4220697e-06, No Iterations 2
ExecutionTime = 0.26 s  ClockTime = 3 s

wallShearStress wallShearStress write:
    writing field wallShearStress
    min/max(mantle) = (-0.016611246 -0.00035719198 -0.0003453236), (-0.0081555104 0.00035492769 0.00034537327)
writeObjects writeObjects1 write:
    writing object pointDisplacement
I get past the save

Courant Number mean: 0.068201917 max: 0.30562398
0.000020

Time = 0.000030

Reading pointDisplacement

prev_runTime0.000020
GAMG:  Solving for cellDisplacementx, Initial residual = 0, Final residual = 0, No Iterations 0
GAMG:  Solving for cellDisplacementy, Initial residual = 0.15732823, Final residual = 0.00063141231, No Iterations 2
GAMG:  Solving for cellDisplacementz, Initial residual = 0.026931529, Final residual = 0.00011735478, No Iterations 2
PIMPLE: iteration 1
smoothSolver:  Solving for Ux, Initial residual = 0.79432107, Final residual = 4.6955214e-07, No Iterations 3
smoothSolver:  Solving for Uy, Initial residual = 0.2713958, Final residual = 1.4873446e-07, No Iterations 3
smoothSolver:  Solving for Uz, Initial residual = 0.26595631, Final residual = 5.6912542e-06, No Iterations 2
GAMG:  Solving for p, Initial residual = 0.002602471, Final residual = 8.7103888e-06, No Iterations 3
time step continuity errors : sum local = 7.7027205e-08, global = -7.0916614e-08, cumulative = -3.0660362e-06
GAMG:  Solving for p, Initial residual = 0.00034036697, Final residual = 3.3140171e-08, No Iterations 6
time step continuity errors : sum local = 2.9323997e-10, global = 2.5302043e-10, cumulative = -3.0657832e-06
smoothSolver:  Solving for epsilon, Initial residual = 0.0047706629, Final residual = 4.9442138e-08, No Iterations 2
smoothSolver:  Solving for k, Initial residual = 0.10426112, Final residual = 1.3380752e-06, No Iterations 2
ExecutionTime = 0.46 s  ClockTime = 6 s

wallShearStress wallShearStress write:
    writing field wallShearStress
    min/max(mantle) = (-0.026270269 -0.0005392189 -0.00037856033), (-0.012203621 0.00054196884 0.00037817738)
writeObjects writeObjects1 write:
    writing object pointDisplacement
I get past the save

Courant Number mean: 0.071138046 max: 0.31997719
0.000030

Time = 0.000040

Reading pointDisplacement

prev_runTime0.000030
GAMG:  Solving for cellDisplacementx, Initial residual = 0, Final residual = 0, No Iterations 0
GAMG:  Solving for cellDisplacementy, Initial residual = 0.15279331, Final residual = 0.00065245601, No Iterations 2
GAMG:  Solving for cellDisplacementz, Initial residual = 0.026479032, Final residual = 0.00010682093, No Iterations 2
PIMPLE: iteration 1
smoothSolver:  Solving for Ux, Initial residual = 0.72901669, Final residual = 4.2466204e-07, No Iterations 3
smoothSolver:  Solving for Uy, Initial residual = 0.18806213, Final residual = 6.6088347e-06, No Iterations 2
smoothSolver:  Solving for Uz, Initial residual = 0.18846787, Final residual = 3.6104483e-06, No Iterations 2
GAMG:  Solving for p, Initial residual = 0.0022522112, Final residual = 1.2143267e-05, No Iterations 3
time step continuity errors : sum local = 1.0531066e-07, global = -6.7490778e-08, cumulative = -3.133274e-06
GAMG:  Solving for p, Initial residual = 0.00036862522, Final residual = 8.9089982e-08, No Iterations 5
time step continuity errors : sum local = 7.7315407e-10, global = 5.2951802e-10, cumulative = -3.1327445e-06
smoothSolver:  Solving for epsilon, Initial residual = 0.0045976702, Final residual = 4.3733186e-08, No Iterations 2
smoothSolver:  Solving for k, Initial residual = 0.10806603, Final residual = 1.370271e-06, No Iterations 2
ExecutionTime = 0.58 s  ClockTime = 8 s

wallShearStress wallShearStress write:
    writing field wallShearStress
    min/max(mantle) = (-0.036936099 -0.0012416958 -0.00056004694), (-0.016046366 0.001239729 0.00056141342)
writeObjects writeObjects1 write:
    writing object pointDisplacement
I get past the save

Courant Number mean: 0.075237599 max: 0.3212386
0.000040

Time = 0.000050

Reading pointDisplacement

prev_runTime0.000040
GAMG:  Solving for cellDisplacementx, Initial residual = 0, Final residual = 0, No Iterations 0
GAMG:  Solving for cellDisplacementy, Initial residual = 0.14828765, Final residual = 0.00040945278, No Iterations 2
GAMG:  Solving for cellDisplacementz, Initial residual = 0.026417227, Final residual = 6.9608072e-05, No Iterations 2
PIMPLE: iteration 1
smoothSolver:  Solving for Ux, Initial residual = 0.66877148, Final residual = 3.8025077e-07, No Iterations 3
smoothSolver:  Solving for Uy, Initial residual = 0.14894666, Final residual = 4.7633758e-06, No Iterations 2
smoothSolver:  Solving for Uz, Initial residual = 0.14883535, Final residual = 2.576986e-06, No Iterations 2
GAMG:  Solving for p, Initial residual = 0.0023580709, Final residual = 1.5337572e-05, No Iterations 3
time step continuity errors : sum local = 1.315054e-07, global = -1.1754536e-07, cumulative = -3.2502898e-06
GAMG:  Solving for p, Initial residual = 0.00045181749, Final residual = 3.0001492e-08, No Iterations 6
time step continuity errors : sum local = 2.572944e-10, global = 1.176172e-10, cumulative = -3.2501722e-06
smoothSolver:  Solving for epsilon, Initial residual = 0.0044610309, Final residual = 4.0925774e-08, No Iterations 2
smoothSolver:  Solving for k, Initial residual = 0.11298992, Final residual = 1.3840412e-06, No Iterations 2
ExecutionTime = 0.78 s  ClockTime = 11 s

wallShearStress wallShearStress write:
    writing field wallShearStress
    min/max(mantle) = (-0.045318374 -0.0020295421 -0.00083544804), (-0.01978929 0.0020283417 0.00083618532)
writeObjects writeObjects1 write:
    writing object pointDisplacement
I get past the save

Finalising parallel run
