/*---------------------------------------------------------------------------*\
| =========                 |                                                 |
| \\      /  F ield         | foam-extend: Open Source CFD                    |
|  \\    /   O peration     | Version:     4.1-20200408                       |
|   \\  /    A nd           | Web:         http://www.foam-extend.org         |
|    \\/     M anipulation  | For copyright notice see file Copyright         |
\*---------------------------------------------------------------------------*/
Build  : 4.1-20200408
Exec   : coconut_plasticNonLinSolidFoam
Date   : Mar 15 2022
Time   : 10:47:27
Host   : "cfdclu60.ugent.be"
PID    : 12798
CtrlDict : "/lusers/temp/mathieu/PycharmProjects/coconut/examples/test_pressure_pertubation_structureFE41_coarse_1inner_iter/test_v41/wire/CSM/system/controlDict"
Case   : /lusers/temp/mathieu/PycharmProjects/coconut/examples/test_pressure_pertubation_structureFE41_coarse_1inner_iter/test_v41/wire/CSM
nProcs : 1
sigFpe : Enabling floating point exception trapping (FOAM_SIGFPE).
allowSystemOperations : Disallowing user-supplied system call operations

// * * * * * * * * * * * * * * * * * * * * * * * * * * * * * * * * * * * * * //
Create time

Create dynamic mesh for time = 0.00000

Selecting dynamicFvMesh solidDynamicFvMesh
No mesh smoother specified
Setting nonLinear to updatedLagrangianKirchhoff

Reading field DU

Creating mechanical model
Selecting mechanical law multiMaterial
Selecting mechanical law elastoPlasticKirchhoff
Creating field sigmaY
Creating field DSigmaY
Creating field epsilonP
Creating field DEpsilonP
Creating field bEbarTrial
Creating field bEbar
Creating field DEpsilonPEq
Creating field DLambda
Creating field epsilonPEq
Creating field activeYield
Creating field plasticN
Creating field sigmaHyd
    smoothPressure: false
    smoothFactor: 10
elastoPlasticKirchhoff: RhieChowScaleFactor = 0.1
Setting nonLinear to updatedLagrangianKirchhoff

Time: 0.00010

SigmaY_before= dimensions      [1 -1 -2 0 0 0 0];

internalField   uniform 1.25e+09;

boundaryField
{
    wireDownstream
    {
        type            calculated;
        value           uniform 1.25e+09;
    }
    wireUpstream
    {
        type            calculated;
        value           uniform 1.25e+09;
    }
    wireTopContact
    {
        type            calculated;
        value           uniform 1.25e+09;
    }
    front
    {
        type            wedge;
    }
    back
    {
        type            wedge;
    }
}


Coupling iteration = 1

    Time 0.0001, Corr 0, res = 1, rel res = 1, material res = 1.17779e+12, iters = 0
    Time 0.0001, Corr 1, res = 1, rel res = 1.00016, material res = 0.552011, iters = 0
    Time 0.0001, Corr 2, res = 0.428634, rel res = 0.524959, material res = 3.09539, iters = 0
    Time 0.0001, Corr 3, res = 0.345913, rel res = 0.496204, material res = 0.422434, iters = 0
    Time 0.0001, Corr 4, res = 0.303801, rel res = 0.134529, material res = 0.475619, iters = 0
    Time 0.0001, Corr 5, res = 0.222641, rel res = 0.287379, material res = 0.26551, iters = 0
    Time 0.0001, Corr 6, res = 0.199709, rel res = 0.0553002, material res = 0.23602, iters = 0
    Time 0.0001, Corr 7, res = 0.123493, rel res = 0.18094, material res = 0.176761, iters = 0
    Time 0.0001, Corr 8, res = 0.121785, rel res = 0.0288991, material res = 0.15271, iters = 0
    Time 0.0001, Corr 9, res = 0.0655018, rel res = 0.122403, material res = 0.126529, iters = 0
    Time 0.0001, Corr 10, res = 0.0750721, rel res = 0.0312412, material res = 0.110022, iters = 0
    Time 0.0001, Corr 11, res = 0.0386226, rel res = 0.0904383, material res = 0.0977056, iters = 0
    Time 0.0001, Corr 12, res = 0.0496363, rel res = 0.0389406, material res = 0.0878107, iters = 0
    Time 0.0001, Corr 13, res = 0.0284564, rel res = 0.0707113, material res = 0.0799166, iters = 0
    Time 0.0001, Corr 14, res = 0.0339846, rel res = 0.0405593, material res = 0.0728214, iters = 0
    Time 0.0001, Corr 15, res = 0.0218539, rel res = 0.0574637, material res = 0.0671677, iters = 0
    Time 0.0001, Corr 16, res = 0.0243954, rel res = 0.0395024, material res = 0.0619122, iters = 0
    Time 0.0001, Corr 17, res = 0.0173852, rel res = 0.0483229, material res = 0.0576431, iters = 0
    Time 0.0001, Corr 18, res = 0.0185192, rel res = 0.0373725, material res = 0.0536324, iters = 0
    Time 0.0001, Corr 19, res = 0.0144721, rel res = 0.0417574, material res = 0.0502892, iters = 0
    Time 0.0001, Corr 20, res = 0.0148441, rel res = 0.034883, material res = 0.0471437, iters = 0
    Time 0.0001, Corr 21, res = 0.0130556, rel res = 0.0368384, material res = 0.0444545, iters = 0
    Time 0.0001, Corr 22, res = 0.0127244, rel res = 0.0323662, material res = 0.0419279, iters = 0
    Time 0.0001, Corr 23, res = 0.0118959, rel res = 0.0330058, material res = 0.0397196, iters = 0
    Time 0.0001, Corr 24, res = 0.0113878, rel res = 0.0299731, material res = 0.037648, iters = 0
    Time 0.0001, Corr 25, res = 0.0109409, rel res = 0.0299169, material res = 0.035804, iters = 0
    Time 0.0001, Corr 26, res = 0.010403, rel res = 0.0277644, material res = 0.0340755, iters = 0
    Time 0.0001, Corr 27, res = 0.0101422, rel res = 0.0273565, material res = 0.0325142, iters = 0
    Time 0.0001, Corr 28, res = 0.00975716, rel res = 0.0257557, material res = 0.0310504, iters = 0
    Time 0.0001, Corr 29, res = 0.00947936, rel res = 0.0251859, material res = 0.0297127, iters = 0
    Time 0.0001, Corr 30, res = 0.00902275, rel res = 0.024054, material res = 0.0284574, iters = 0
    Time 0.0001, Corr 31, res = 0.00874152, rel res = 0.0236709, material res = 0.0272912, iters = 0
    Time 0.0001, Corr 32, res = 0.00865456, rel res = 0.0228602, material res = 0.0261824, iters = 0
    Time 0.0001, Corr 33, res = 0.00845574, rel res = 0.0223986, material res = 0.0251552, iters = 0
    Time 0.0001, Corr 34, res = 0.00834873, rel res = 0.021714, material res = 0.0241944, iters = 0
    Time 0.0001, Corr 35, res = 0.00816777, rel res = 0.0212338, material res = 0.0232995, iters = 0
    Time 0.0001, Corr 36, res = 0.00811248, rel res = 0.0206366, material res = 0.0224597, iters = 0
    Time 0.0001, Corr 37, res = 0.00795596, rel res = 0.0201626, material res = 0.0216737, iters = 0
    Time 0.0001, Corr 38, res = 0.00788285, rel res = 0.0196299, material res = 0.0209339, iters = 0
    Time 0.0001, Corr 39, res = 0.00774851, rel res = 0.019174, material res = 0.0202383, iters = 0
    Time 0.0001, Corr 40, res = 0.00766049, rel res = 0.0186915, material res = 0.0195817, iters = 0
    Time 0.0001, Corr 41, res = 0.00753951, rel res = 0.0182588, material res = 0.0189621, iters = 0
    Time 0.0001, Corr 42, res = 0.00744442, rel res = 0.0178171, material res = 0.0183756, iters = 0
    Time 0.0001, Corr 43, res = 0.00733209, rel res = 0.0174092, material res = 0.0178204, iters = 0
    Time 0.0001, Corr 44, res = 0.00723457, rel res = 0.0170018, material res = 0.0172935, iters = 0
    Time 0.0001, Corr 45, res = 0.0071285, rel res = 0.0166187, material res = 0.0167932, iters = 0
    Time 0.0001, Corr 46, res = 0.0070312, rel res = 0.0162409, material res = 0.0163174, iters = 0
    Time 0.0001, Corr 47, res = 0.00693009, rel res = 0.0158816, material res = 0.0158645, iters = 0
    Time 0.0001, Corr 48, res = 0.00683448, rel res = 0.0155299, material res = 0.0154328, iters = 0
    Time 0.0001, Corr 49, res = 0.00673759, rel res = 0.0151929, material res = 0.0150209, iters = 0
    Time 0.0001, Corr 50, res = 0.00664442, rel res = 0.0148644, material res = 0.0146275, iters = 0
    Time 0.0001, Corr 51, res = 0.00655132, rel res = 0.0145483, material res = 0.0142514, iters = 0
    Time 0.0001, Corr 52, res = 0.00646093, rel res = 0.0142408, material res = 0.0138915, iters = 0
    Time 0.0001, Corr 53, res = 0.00637131, rel res = 0.013944, material res = 0.0135467, iters = 0
    Time 0.0001, Corr 54, res = 0.00628386, rel res = 0.0136556, material res = 0.0132162, iters = 0
    Time 0.0001, Corr 55, res = 0.0061975, rel res = 0.0133766, material res = 0.0128991, iters = 0
    Time 0.0001, Corr 56, res = 0.006113, rel res = 0.0131056, material res = 0.0125946, iters = 0
    Time 0.0001, Corr 57, res = 0.00602974, rel res = 0.012843, material res = 0.012302, iters = 0
    Time 0.0001, Corr 58, res = 0.00594813, rel res = 0.0125985, material res = 0.0120238, iters = 0
    Time 0.0001, Corr 59, res = 0.00595968, rel res = 0.0123477, material res = 0.0117615, iters = 0
    Time 0.0001, Corr 60, res = 0.00607278, rel res = 0.0120644, material res = 0.0115072, iters = 0
    Time 0.0001, Corr 61, res = 0.00603189, rel res = 0.0118454, material res = 0.011263, iters = 0
    Time 0.0001, Corr 62, res = 0.00604304, rel res = 0.0116007, material res = 0.0110206, iters = 0
    Time 0.0001, Corr 63, res = 0.00597463, rel res = 0.0113989, material res = 0.0107859, iters = 0
    Time 0.0001, Corr 64, res = 0.00593681, rel res = 0.0111843, material res = 0.0105566, iters = 0
    Time 0.0001, Corr 65, res = 0.00586435, rel res = 0.0109958, material res = 0.0103346, iters = 0
    Time 0.0001, Corr 66, res = 0.00581127, rel res = 0.0108025, material res = 0.010119, iters = 0
    Time 0.0001, Corr 67, res = 0.00574527, rel res = 0.0106252, material res = 0.00991031, iters = 0
    Time 0.0001, Corr 68, res = 0.00569151, rel res = 0.0104474, material res = 0.00970811, iters = 0
    Time 0.0001, Corr 69, res = 0.00563392, rel res = 0.0102801, material res = 0.00951247, iters = 0
    Time 0.0001, Corr 70, res = 0.00558387, rel res = 0.0101144, material res = 0.00932302, iters = 0
    Time 0.0001, Corr 71, res = 0.00553335, rel res = 0.009956, material res = 0.00913968, iters = 0
    Time 0.0001, Corr 72, res = 0.00548742, rel res = 0.00980027, material res = 0.00896214, iters = 0
    Time 0.0001, Corr 73, res = 0.00544208, rel res = 0.0096501, material res = 0.00879023, iters = 0
    Time 0.0001, Corr 74, res = 0.00539958, rel res = 0.00950296, material res = 0.0086237, iters = 0
    Time 0.0001, Corr 75, res = 0.00535791, rel res = 0.00936034, material res = 0.00846236, iters = 0
    Time 0.0001, Corr 76, res = 0.00531808, rel res = 0.00922083, material res = 0.00830597, iters = 0
    Time 0.0001, Corr 77, res = 0.00527908, rel res = 0.0090852, material res = 0.00815436, iters = 0
    Time 0.0001, Corr 78, res = 0.00524135, rel res = 0.00895263, material res = 0.00800732, iters = 0
    Time 0.0001, Corr 79, res = 0.00520439, rel res = 0.00882347, material res = 0.00786466, iters = 0
    Time 0.0001, Corr 80, res = 0.00516841, rel res = 0.00869727, material res = 0.00772621, iters = 0
    Time 0.0001, Corr 81, res = 0.00513312, rel res = 0.00857415, material res = 0.0075918, iters = 0
    Time 0.0001, Corr 82, res = 0.00509863, rel res = 0.00845384, material res = 0.00746127, iters = 0
    Time 0.0001, Corr 83, res = 0.0050648, rel res = 0.00833636, material res = 0.00733446, iters = 0
    Time 0.0001, Corr 84, res = 0.00503165, rel res = 0.00822153, material res = 0.00721123, iters = 0
    Time 0.0001, Corr 85, res = 0.00499911, rel res = 0.00810933, material res = 0.0071138, iters = 0
    Time 0.0001, Corr 86, res = 0.00496719, rel res = 0.00799962, material res = 0.00704523, iters = 0
    Time 0.0001, Corr 87, res = 0.00493584, rel res = 0.00789235, material res = 0.00697806, iters = 0
    Time 0.0001, Corr 88, res = 0.00490506, rel res = 0.00778743, material res = 0.00691223, iters = 0
    Time 0.0001, Corr 89, res = 0.00487483, rel res = 0.0076848, material res = 0.00684769, iters = 0
    Time 0.0001, Corr 90, res = 0.00484511, rel res = 0.00758438, material res = 0.00678437, iters = 0
    Time 0.0001, Corr 91, res = 0.00481591, rel res = 0.0074861, material res = 0.00672224, iters = 0
    Time 0.0001, Corr 92, res = 0.0047872, rel res = 0.00738989, material res = 0.00666125, iters = 0
    Time 0.0001, Corr 93, res = 0.00475897, rel res = 0.00729571, material res = 0.00660135, iters = 0
    Time 0.0001, Corr 94, res = 0.00473121, rel res = 0.00720348, material res = 0.0065425, iters = 0
    Time 0.0001, Corr 95, res = 0.0047039, rel res = 0.00711315, material res = 0.00648467, iters = 0
    Time 0.0001, Corr 96, res = 0.00467704, rel res = 0.00702466, material res = 0.00642781, iters = 0
    Time 0.0001, Corr 97, res = 0.00465059, rel res = 0.00693796, material res = 0.0063719, iters = 0
    Time 0.0001, Corr 98, res = 0.00462457, rel res = 0.00685299, material res = 0.0063169, iters = 0
    Time 0.0001, Corr 99, res = 0.00459895, rel res = 0.00676972, material res = 0.00626278, iters = 0
    Time 0.0001, Corr 100, res = 0.00457372, rel res = 0.00668808, material res = 0.00620952, iters = 0
    Time 0.0001, Corr 101, res = 0.00454886, rel res = 0.00660804, material res = 0.00615707, iters = 0
    Time 0.0001, Corr 102, res = 0.00452438, rel res = 0.00652955, material res = 0.00610542, iters = 0
    Time 0.0001, Corr 103, res = 0.00450026, rel res = 0.00645256, material res = 0.00605455, iters = 0
    Time 0.0001, Corr 104, res = 0.00447648, rel res = 0.00637704, material res = 0.00600442, iters = 0
    Time 0.0001, Corr 105, res = 0.00445305, rel res = 0.00630295, material res = 0.00595502, iters = 0
    Time 0.0001, Corr 106, res = 0.00442994, rel res = 0.00623024, material res = 0.00590632, iters = 0
    Time 0.0001, Corr 107, res = 0.00440715, rel res = 0.00615888, material res = 0.00585831, iters = 0
    Time 0.0001, Corr 108, res = 0.00438467, rel res = 0.00608884, material res = 0.00581096, iters = 0
    Time 0.0001, Corr 109, res = 0.0043625, rel res = 0.00602007, material res = 0.00576426, iters = 0
    Time 0.0001, Corr 110, res = 0.00434061, rel res = 0.00595255, material res = 0.00571818, iters = 0
    Time 0.0001, Corr 111, res = 0.00431901, rel res = 0.00588625, material res = 0.00567272, iters = 0
    Time 0.0001, Corr 112, res = 0.00429769, rel res = 0.00582112, material res = 0.00562785, iters = 0
    Time 0.0001, Corr 113, res = 0.00427664, rel res = 0.00575714, material res = 0.00559162, iters = 0
    Time 0.0001, Corr 114, res = 0.00425583, rel res = 0.00569429, material res = 0.00556505, iters = 0
    Time 0.0001, Corr 115, res = 0.00423529, rel res = 0.00563253, material res = 0.00553837, iters = 0
    Time 0.0001, Corr 116, res = 0.00421499, rel res = 0.00557184, material res = 0.00551159, iters = 0
    Time 0.0001, Corr 117, res = 0.00419493, rel res = 0.00551218, material res = 0.00548472, iters = 0
    Time 0.0001, Corr 118, res = 0.00417511, rel res = 0.00545354, material res = 0.00545776, iters = 0
    Time 0.0001, Corr 119, res = 0.00415551, rel res = 0.00539589, material res = 0.00543074, iters = 0
    Time 0.0001, Corr 120, res = 0.00413613, rel res = 0.0053392, material res = 0.00540366, iters = 0
    Time 0.0001, Corr 121, res = 0.00411696, rel res = 0.00528346, material res = 0.00537652, iters = 0
    Time 0.0001, Corr 122, res = 0.00409799, rel res = 0.00522863, material res = 0.00534935, iters = 0
    Time 0.0001, Corr 123, res = 0.00407923, rel res = 0.0051747, material res = 0.00532214, iters = 0
    Time 0.0001, Corr 124, res = 0.00406067, rel res = 0.00512164, material res = 0.00529491, iters = 0
    Time 0.0001, Corr 125, res = 0.00404229, rel res = 0.00506944, material res = 0.00526766, iters = 0
    Time 0.0001, Corr 126, res = 0.0040241, rel res = 0.00501807, material res = 0.0052404, iters = 0
    Time 0.0001, Corr 127, res = 0.00400609, rel res = 0.00496751, material res = 0.00521313, iters = 0
    Time 0.0001, Corr 128, res = 0.00398826, rel res = 0.00491776, material res = 0.00518587, iters = 0
    Time 0.0001, Corr 129, res = 0.0039706, rel res = 0.00486878, material res = 0.00515863, iters = 0
    Time 0.0001, Corr 130, res = 0.0039531, rel res = 0.00482056, material res = 0.00513139, iters = 0
    Time 0.0001, Corr 131, res = 0.00393576, rel res = 0.00477308, material res = 0.00510418, iters = 0
    Time 0.0001, Corr 132, res = 0.00391857, rel res = 0.00472633, material res = 0.005077, iters = 0
    Time 0.0001, Corr 133, res = 0.00390155, rel res = 0.00468029, material res = 0.00504985, iters = 0
    Time 0.0001, Corr 134, res = 0.00388467, rel res = 0.00463494, material res = 0.00502273, iters = 0
    Time 0.0001, Corr 135, res = 0.00386794, rel res = 0.00459028, material res = 0.00499566, iters = 0
    Time 0.0001, Corr 136, res = 0.00385134, rel res = 0.00454627, material res = 0.00496864, iters = 0
    Time 0.0001, Corr 137, res = 0.00383489, rel res = 0.00450292, material res = 0.00494166, iters = 0
    Time 0.0001, Corr 138, res = 0.00381856, rel res = 0.0044602, material res = 0.00491474, iters = 0
    Time 0.0001, Corr 139, res = 0.00380238, rel res = 0.0044181, material res = 0.00488788, iters = 0
    Time 0.0001, Corr 140, res = 0.00378631, rel res = 0.00437662, material res = 0.00486108, iters = 0
    Time 0.0001, Corr 141, res = 0.00377037, rel res = 0.00433572, material res = 0.00483435, iters = 0
    Time 0.0001, Corr 142, res = 0.00375456, rel res = 0.00429541, material res = 0.00480768, iters = 0
    Time 0.0001, Corr 143, res = 0.00373885, rel res = 0.00425568, material res = 0.00478109, iters = 0
    Time 0.0001, Corr 144, res = 0.00372326, rel res = 0.0042165, material res = 0.00475457, iters = 0
    Time 0.0001, Corr 145, res = 0.0037078, rel res = 0.00417787, material res = 0.00472812, iters = 0
    Time 0.0001, Corr 146, res = 0.00369243, rel res = 0.00413977, material res = 0.00470176, iters = 0
    Time 0.0001, Corr 147, res = 0.00367717, rel res = 0.0041022, material res = 0.00467548, iters = 0
    Time 0.0001, Corr 148, res = 0.00366202, rel res = 0.00406515, material res = 0.00464929, iters = 0
    Time 0.0001, Corr 149, res = 0.00364697, rel res = 0.0040286, material res = 0.00462319, iters = 0
    Time 0.0001, Corr 150, res = 0.00363202, rel res = 0.00399254, material res = 0.00459717, iters = 0
    Time 0.0001, Corr 151, res = 0.00361717, rel res = 0.00395697, material res = 0.00457125, iters = 0
    Time 0.0001, Corr 152, res = 0.00360241, rel res = 0.00392188, material res = 0.00454542, iters = 0
    Time 0.0001, Corr 153, res = 0.00358775, rel res = 0.00388725, material res = 0.00451968, iters = 0
    Time 0.0001, Corr 154, res = 0.00357318, rel res = 0.00385307, material res = 0.00449404, iters = 0
    Time 0.0001, Corr 155, res = 0.00355869, rel res = 0.00381935, material res = 0.0044685, iters = 0
    Time 0.0001, Corr 156, res = 0.0035443, rel res = 0.00378606, material res = 0.00444307, iters = 0
    Time 0.0001, Corr 157, res = 0.00352999, rel res = 0.00375321, material res = 0.00441773, iters = 0
    Time 0.0001, Corr 158, res = 0.00351291, rel res = 0.00372078, material res = 0.0043925, iters = 0
    Time 0.0001, Corr 159, res = 0.00349269, rel res = 0.00368876, material res = 0.00436737, iters = 0
    Time 0.0001, Corr 160, res = 0.00346756, rel res = 0.00365715, material res = 0.00434234, iters = 0
    Time 0.0001, Corr 161, res = 0.0034417, rel res = 0.00362594, material res = 0.00431743, iters = 0
    Time 0.0001, Corr 162, res = 0.00341608, rel res = 0.00359512, material res = 0.00429262, iters = 0
    Time 0.0001, Corr 163, res = 0.0033907, rel res = 0.00356468, material res = 0.00426792, iters = 0
    Time 0.0001, Corr 164, res = 0.00336556, rel res = 0.00353463, material res = 0.00424334, iters = 0
    Time 0.0001, Corr 165, res = 0.00334066, rel res = 0.00350494, material res = 0.00421886, iters = 0
    Time 0.0001, Corr 166, res = 0.00331599, rel res = 0.00347562, material res = 0.00419449, iters = 0
    Time 0.0001, Corr 167, res = 0.00329156, rel res = 0.00344665, material res = 0.00417024, iters = 0
    Time 0.0001, Corr 168, res = 0.00326735, rel res = 0.00341804, material res = 0.0041461, iters = 0
    Time 0.0001, Corr 169, res = 0.00324336, rel res = 0.00338977, material res = 0.00412208, iters = 0
    Time 0.0001, Corr 170, res = 0.0032196, rel res = 0.00336185, material res = 0.00409817, iters = 0
    Time 0.0001, Corr 171, res = 0.00319605, rel res = 0.00333425, material res = 0.00407437, iters = 0
    Time 0.0001, Corr 172, res = 0.00317272, rel res = 0.00330698, material res = 0.00405069, iters = 0
    Time 0.0001, Corr 173, res = 0.0031496, rel res = 0.00328004, material res = 0.00402713, iters = 0
    Time 0.0001, Corr 174, res = 0.0031267, rel res = 0.00325341, material res = 0.00400368, iters = 0
    Time 0.0001, Corr 175, res = 0.003104, rel res = 0.00322709, material res = 0.00398035, iters = 0
    Time 0.0001, Corr 176, res = 0.00308151, rel res = 0.00320107, material res = 0.00395714, iters = 0
    Time 0.0001, Corr 177, res = 0.00305922, rel res = 0.00317536, material res = 0.00393404, iters = 0
    Time 0.0001, Corr 178, res = 0.00303713, rel res = 0.00314994, material res = 0.00391107, iters = 0
    Time 0.0001, Corr 179, res = 0.00301525, rel res = 0.00312481, material res = 0.00388821, iters = 0
    Time 0.0001, Corr 180, res = 0.00299356, rel res = 0.00309997, material res = 0.00386547, iters = 0
    Time 0.0001, Corr 181, res = 0.00297206, rel res = 0.0030754, material res = 0.00384285, iters = 0
    Time 0.0001, Corr 182, res = 0.00295076, rel res = 0.00305112, material res = 0.00382034, iters = 0
    Time 0.0001, Corr 183, res = 0.00292965, rel res = 0.0030271, material res = 0.00379796, iters = 0
    Time 0.0001, Corr 184, res = 0.00290873, rel res = 0.00300335, material res = 0.00377569, iters = 0
    Time 0.0001, Corr 185, res = 0.00288799, rel res = 0.00297987, material res = 0.00375355, iters = 0
    Time 0.0001, Corr 186, res = 0.00286743, rel res = 0.00295664, material res = 0.00373152, iters = 0
    Time 0.0001, Corr 187, res = 0.00284706, rel res = 0.00293367, material res = 0.00370961, iters = 0
    Time 0.0001, Corr 188, res = 0.00282686, rel res = 0.00291095, material res = 0.00368783, iters = 0
    Time 0.0001, Corr 189, res = 0.00280684, rel res = 0.00288847, material res = 0.00366616, iters = 0
    Time 0.0001, Corr 190, res = 0.002787, rel res = 0.00286624, material res = 0.0036446, iters = 0
    Time 0.0001, Corr 191, res = 0.00276733, rel res = 0.00284425, material res = 0.00362317, iters = 0
    Time 0.0001, Corr 192, res = 0.00274783, rel res = 0.00282249, material res = 0.00360186, iters = 0
    Time 0.0001, Corr 193, res = 0.0027285, rel res = 0.00280097, material res = 0.00358066, iters = 0
    Time 0.0001, Corr 194, res = 0.00270934, rel res = 0.00277967, material res = 0.00355959, iters = 0
    Time 0.0001, Corr 195, res = 0.00269035, rel res = 0.00275859, material res = 0.00353863, iters = 0
    Time 0.0001, Corr 196, res = 0.00267152, rel res = 0.00273774, material res = 0.00351779, iters = 0
    Time 0.0001, Corr 197, res = 0.00265285, rel res = 0.00271711, material res = 0.00349707, iters = 0
    Time 0.0001, Corr 198, res = 0.00263435, rel res = 0.00269669, material res = 0.00347646, iters = 0
    Time 0.0001, Corr 199, res = 0.002616, rel res = 0.00267648, material res = 0.00345597, iters = 0
    Time 0.0001, Corr 200, res = 0.00259781, rel res = 0.00265648, material res = 0.0034356, iters = 0
    Time 0.0001, Corr 201, res = 0.00257978, rel res = 0.00263668, material res = 0.00341535, iters = 0
    Time 0.0001, Corr 202, res = 0.0025619, rel res = 0.00261709, material res = 0.00339521, iters = 0
    Time 0.0001, Corr 203, res = 0.00254417, rel res = 0.00259769, material res = 0.00337519, iters = 0
    Time 0.0001, Corr 204, res = 0.0025266, rel res = 0.0025785, material res = 0.00335529, iters = 0
    Time 0.0001, Corr 205, res = 0.00250917, rel res = 0.00255949, material res = 0.0033355, iters = 0
    Time 0.0001, Corr 206, res = 0.0024919, rel res = 0.00254068, material res = 0.00331583, iters = 0
    Time 0.0001, Corr 207, res = 0.00247477, rel res = 0.00252205, material res = 0.00329627, iters = 0
    Time 0.0001, Corr 208, res = 0.00245778, rel res = 0.00250361, material res = 0.00327682, iters = 0
    Time 0.0001, Corr 209, res = 0.00244094, rel res = 0.00248535, material res = 0.00325749, iters = 0
    Time 0.0001, Corr 210, res = 0.00242423, rel res = 0.00246727, material res = 0.00323828, iters = 0
    Time 0.0001, Corr 211, res = 0.00240768, rel res = 0.00244937, material res = 0.00321668, iters = 0
    Time 0.0001, Corr 212, res = 0.00239125, rel res = 0.00243165, material res = 0.0031947, iters = 0
    Time 0.0001, Corr 213, res = 0.00237497, rel res = 0.0024141, material res = 0.00317289, iters = 0
    Time 0.0001, Corr 214, res = 0.00235882, rel res = 0.00239671, material res = 0.00315126, iters = 0
    Time 0.0001, Corr 215, res = 0.0023428, rel res = 0.0023795, material res = 0.00312979, iters = 0
    Time 0.0001, Corr 216, res = 0.00232693, rel res = 0.00236245, material res = 0.0031085, iters = 0
    Time 0.0001, Corr 217, res = 0.00231118, rel res = 0.00234556, material res = 0.00308737, iters = 0
    Time 0.0001, Corr 218, res = 0.00229557, rel res = 0.00232884, material res = 0.0030664, iters = 0
    Time 0.0001, Corr 219, res = 0.00228008, rel res = 0.00231227, material res = 0.0030456, iters = 0
    Time 0.0001, Corr 220, res = 0.00226473, rel res = 0.00229587, material res = 0.00302496, iters = 0
    Time 0.0001, Corr 221, res = 0.0022495, rel res = 0.00227961, material res = 0.00300448, iters = 0
    Time 0.0001, Corr 222, res = 0.00223439, rel res = 0.00226351, material res = 0.00298417, iters = 0
    Time 0.0001, Corr 223, res = 0.00221942, rel res = 0.00224756, material res = 0.00296401, iters = 0
    Time 0.0001, Corr 224, res = 0.00220456, rel res = 0.00223176, material res = 0.00294401, iters = 0
    Time 0.0001, Corr 225, res = 0.00218983, rel res = 0.0022161, material res = 0.00292417, iters = 0
    Time 0.0001, Corr 226, res = 0.00217521, rel res = 0.00220059, material res = 0.00290448, iters = 0
    Time 0.0001, Corr 227, res = 0.00216072, rel res = 0.00218523, material res = 0.00288494, iters = 0
    Time 0.0001, Corr 228, res = 0.00214634, rel res = 0.00217, material res = 0.00286556, iters = 0
    Time 0.0001, Corr 229, res = 0.00213209, rel res = 0.00215491, material res = 0.00284633, iters = 0
    Time 0.0001, Corr 230, res = 0.00211795, rel res = 0.00213996, material res = 0.00282724, iters = 0
    Time 0.0001, Corr 231, res = 0.00210393, rel res = 0.00212515, material res = 0.00280831, iters = 0
    Time 0.0001, Corr 232, res = 0.00209001, rel res = 0.00211047, material res = 0.00278953, iters = 0
    Time 0.0001, Corr 233, res = 0.00207622, rel res = 0.00209593, material res = 0.00277089, iters = 0
    Time 0.0001, Corr 234, res = 0.00206254, rel res = 0.00208151, material res = 0.00275239, iters = 0
    Time 0.0001, Corr 235, res = 0.00204896, rel res = 0.00206722, material res = 0.00273404, iters = 0
    Time 0.0001, Corr 236, res = 0.0020355, rel res = 0.00205306, material res = 0.00271583, iters = 0
    Time 0.0001, Corr 237, res = 0.00202215, rel res = 0.00203903, material res = 0.00269776, iters = 0
    Time 0.0001, Corr 238, res = 0.0020089, rel res = 0.00202512, material res = 0.00267983, iters = 0
    Time 0.0001, Corr 239, res = 0.00199576, rel res = 0.00201133, material res = 0.00266204, iters = 0
    Time 0.0001, Corr 240, res = 0.00198272, rel res = 0.00199767, material res = 0.00264439, iters = 0
    Time 0.0001, Corr 241, res = 0.00196979, rel res = 0.00198412, material res = 0.00262688, iters = 0
    Time 0.0001, Corr 242, res = 0.00195697, rel res = 0.0019707, material res = 0.0026095, iters = 0
    Time 0.0001, Corr 243, res = 0.00194425, rel res = 0.00195739, material res = 0.00259225, iters = 0
    Time 0.0001, Corr 244, res = 0.00193163, rel res = 0.00194419, material res = 0.00257514, iters = 0
    Time 0.0001, Corr 245, res = 0.00191911, rel res = 0.00193111, material res = 0.00255816, iters = 0
    Time 0.0001, Corr 246, res = 0.00190669, rel res = 0.00191815, material res = 0.00254131, iters = 0
    Time 0.0001, Corr 247, res = 0.00189437, rel res = 0.00190529, material res = 0.00252459, iters = 0
    Time 0.0001, Corr 248, res = 0.00188216, rel res = 0.00189255, material res = 0.002508, iters = 0
    Time 0.0001, Corr 249, res = 0.00187003, rel res = 0.00187991, material res = 0.00249154, iters = 0
    Time 0.0001, Corr 250, res = 0.001858, rel res = 0.00186738, material res = 0.0024752, iters = 0
    Time 0.0001, Corr 251, res = 0.00184607, rel res = 0.00185496, material res = 0.00245898, iters = 0
    Time 0.0001, Corr 252, res = 0.00183424, rel res = 0.00184264, material res = 0.0024429, iters = 0
    Time 0.0001, Corr 253, res = 0.00182249, rel res = 0.00183043, material res = 0.00242693, iters = 0
    Time 0.0001, Corr 254, res = 0.00181085, rel res = 0.00181832, material res = 0.00241109, iters = 0
    Time 0.0001, Corr 255, res = 0.00179936, rel res = 0.00180631, material res = 0.00239536, iters = 0
    Time 0.0001, Corr 256, res = 0.00178797, rel res = 0.0017944, material res = 0.00237976, iters = 0
    Time 0.0001, Corr 257, res = 0.00177665, rel res = 0.00178259, material res = 0.00236428, iters = 0
    Time 0.0001, Corr 258, res = 0.00176544, rel res = 0.00177088, material res = 0.00234891, iters = 0
    Time 0.0001, Corr 259, res = 0.00175431, rel res = 0.00175927, material res = 0.00233366, iters = 0
    Time 0.0001, Corr 260, res = 0.00174326, rel res = 0.00174775, material res = 0.00231853, iters = 0
    Time 0.0001, Corr 261, res = 0.00173231, rel res = 0.00173633, material res = 0.00230351, iters = 0
    Time 0.0001, Corr 262, res = 0.00172143, rel res = 0.001725, material res = 0.00228861, iters = 0
    Time 0.0001, Corr 263, res = 0.00171065, rel res = 0.00171376, material res = 0.00227381, iters = 0
    Time 0.0001, Corr 264, res = 0.00169995, rel res = 0.00170261, material res = 0.00225913, iters = 0
    Time 0.0001, Corr 265, res = 0.00168933, rel res = 0.00169156, material res = 0.00224456, iters = 0
    Time 0.0001, Corr 266, res = 0.00167879, rel res = 0.0016806, material res = 0.0022301, iters = 0
    Time 0.0001, Corr 267, res = 0.00166833, rel res = 0.00166972, material res = 0.00221575, iters = 0
    Time 0.0001, Corr 268, res = 0.00165796, rel res = 0.00165893, material res = 0.00220151, iters = 0
    Time 0.0001, Corr 269, res = 0.00164766, rel res = 0.00164823, material res = 0.00218738, iters = 0
    Time 0.0001, Corr 270, res = 0.00163745, rel res = 0.00163762, material res = 0.00217335, iters = 0
    Time 0.0001, Corr 271, res = 0.00162731, rel res = 0.00162709, material res = 0.00215942, iters = 0
    Time 0.0001, Corr 272, res = 0.00161726, rel res = 0.00161664, material res = 0.0021456, iters = 0
    Time 0.0001, Corr 273, res = 0.00160727, rel res = 0.00160628, material res = 0.00213189, iters = 0
    Time 0.0001, Corr 274, res = 0.00159737, rel res = 0.001596, material res = 0.00211827, iters = 0
    Time 0.0001, Corr 275, res = 0.00158755, rel res = 0.0015858, material res = 0.00210476, iters = 0
    Time 0.0001, Corr 276, res = 0.00157779, rel res = 0.00157568, material res = 0.00209135, iters = 0
    Time 0.0001, Corr 277, res = 0.00156812, rel res = 0.00156564, material res = 0.00207804, iters = 0
    Time 0.0001, Corr 278, res = 0.00155852, rel res = 0.00155568, material res = 0.00206483, iters = 0
    Time 0.0001, Corr 279, res = 0.00154899, rel res = 0.0015458, material res = 0.00205171, iters = 0
    Time 0.0001, Corr 280, res = 0.00153953, rel res = 0.001536, material res = 0.0020387, iters = 0
    Time 0.0001, Corr 281, res = 0.00153014, rel res = 0.00152627, material res = 0.00202578, iters = 0
    Time 0.0001, Corr 282, res = 0.00152083, rel res = 0.00151662, material res = 0.00201295, iters = 0
    Time 0.0001, Corr 283, res = 0.00151159, rel res = 0.00150704, material res = 0.00200022, iters = 0
    Time 0.0001, Corr 284, res = 0.00150242, rel res = 0.00149754, material res = 0.00198759, iters = 0
    Time 0.0001, Corr 285, res = 0.00149333, rel res = 0.00148811, material res = 0.00197504, iters = 0
    Time 0.0001, Corr 286, res = 0.00148429, rel res = 0.00147875, material res = 0.00196259, iters = 0
    Time 0.0001, Corr 287, res = 0.00147533, rel res = 0.00146947, material res = 0.00195023, iters = 0
    Time 0.0001, Corr 288, res = 0.00146643, rel res = 0.00146025, material res = 0.00193797, iters = 0
    Time 0.0001, Corr 289, res = 0.0014576, rel res = 0.00145111, material res = 0.00192579, iters = 0
    Time 0.0001, Corr 290, res = 0.00144884, rel res = 0.00144203, material res = 0.0019137, iters = 0
    Time 0.0001, Corr 291, res = 0.00144015, rel res = 0.00143303, material res = 0.0019017, iters = 0
    Time 0.0001, Corr 292, res = 0.00143152, rel res = 0.00142409, material res = 0.00188979, iters = 0
    Time 0.0001, Corr 293, res = 0.00142296, rel res = 0.00141522, material res = 0.00187796, iters = 0
    Time 0.0001, Corr 294, res = 0.00141446, rel res = 0.00140642, material res = 0.00186623, iters = 0
    Time 0.0001, Corr 295, res = 0.00140603, rel res = 0.00139769, material res = 0.00185457, iters = 0
    Time 0.0001, Corr 296, res = 0.00139765, rel res = 0.00138902, material res = 0.001843, iters = 0
    Time 0.0001, Corr 297, res = 0.00138935, rel res = 0.00138041, material res = 0.00183152, iters = 0
    Time 0.0001, Corr 298, res = 0.0013811, rel res = 0.00137187, material res = 0.00182012, iters = 0
    Time 0.0001, Corr 299, res = 0.00137292, rel res = 0.0013634, material res = 0.0018088, iters = 0
    Time 0.0001, Corr 300, res = 0.0013648, rel res = 0.00135498, material res = 0.00179756, iters = 0
    Time 0.0001, Corr 301, res = 0.00135674, rel res = 0.00134663, material res = 0.00178641, iters = 0
    Time 0.0001, Corr 302, res = 0.00134874, rel res = 0.00133834, material res = 0.00177533, iters = 0
    Time 0.0001, Corr 303, res = 0.0013408, rel res = 0.00133011, material res = 0.00176434, iters = 0
    Time 0.0001, Corr 304, res = 0.00133291, rel res = 0.00132195, material res = 0.00175342, iters = 0
    Time 0.0001, Corr 305, res = 0.00132509, rel res = 0.00131384, material res = 0.00174259, iters = 0
    Time 0.0001, Corr 306, res = 0.00131733, rel res = 0.00130579, material res = 0.00173183, iters = 0
    Time 0.0001, Corr 307, res = 0.00130962, rel res = 0.00129781, material res = 0.00172114, iters = 0
    Time 0.0001, Corr 308, res = 0.00130197, rel res = 0.00128988, material res = 0.00171054, iters = 0
    Time 0.0001, Corr 309, res = 0.00129438, rel res = 0.001282, material res = 0.00170001, iters = 0
    Time 0.0001, Corr 310, res = 0.00128685, rel res = 0.00127419, material res = 0.00168955, iters = 0
    Time 0.0001, Corr 311, res = 0.00127937, rel res = 0.00126643, material res = 0.00167917, iters = 0
    Time 0.0001, Corr 312, res = 0.00127194, rel res = 0.00125873, material res = 0.00166887, iters = 0
    Time 0.0001, Corr 313, res = 0.00126457, rel res = 0.00125109, material res = 0.00165864, iters = 0
    Time 0.0001, Corr 314, res = 0.00125726, rel res = 0.0012435, material res = 0.00164848, iters = 0
    Time 0.0001, Corr 315, res = 0.00125, rel res = 0.00123596, material res = 0.00163839, iters = 0
    Time 0.0001, Corr 316, res = 0.00124279, rel res = 0.00122848, material res = 0.00162837, iters = 0
    Time 0.0001, Corr 317, res = 0.00123564, rel res = 0.00122105, material res = 0.00161843, iters = 0
    Time 0.0001, Corr 318, res = 0.00122854, rel res = 0.00121368, material res = 0.00160855, iters = 0
    Time 0.0001, Corr 319, res = 0.00122149, rel res = 0.00120636, material res = 0.00159875, iters = 0
    Time 0.0001, Corr 320, res = 0.00121449, rel res = 0.00119909, material res = 0.00158901, iters = 0
    Time 0.0001, Corr 321, res = 0.00120755, rel res = 0.00119187, material res = 0.00157935, iters = 0
    Time 0.0001, Corr 322, res = 0.00120066, rel res = 0.00118471, material res = 0.00156975, iters = 0
    Time 0.0001, Corr 323, res = 0.00119381, rel res = 0.00117759, material res = 0.00156021, iters = 0
    Time 0.0001, Corr 324, res = 0.00118702, rel res = 0.00117053, material res = 0.00155075, iters = 0
    Time 0.0001, Corr 325, res = 0.00118028, rel res = 0.00116351, material res = 0.00154135, iters = 0
    Time 0.0001, Corr 326, res = 0.00117359, rel res = 0.00115655, material res = 0.00153202, iters = 0
    Time 0.0001, Corr 327, res = 0.00116694, rel res = 0.00114963, material res = 0.00152275, iters = 0
    Time 0.0001, Corr 328, res = 0.00116035, rel res = 0.00114276, material res = 0.00151355, iters = 0
    Time 0.0001, Corr 329, res = 0.0011538, rel res = 0.00113594, material res = 0.00150441, iters = 0
    Time 0.0001, Corr 330, res = 0.0011473, rel res = 0.00112917, material res = 0.00149533, iters = 0
    Time 0.0001, Corr 331, res = 0.00114085, rel res = 0.00112245, material res = 0.00148632, iters = 0
    Time 0.0001, Corr 332, res = 0.00113444, rel res = 0.00111577, material res = 0.00147737, iters = 0
    Time 0.0001, Corr 333, res = 0.00112808, rel res = 0.00110914, material res = 0.00146849, iters = 0
    Time 0.0001, Corr 334, res = 0.00112177, rel res = 0.00110256, material res = 0.00145966, iters = 0
    Time 0.0001, Corr 335, res = 0.0011155, rel res = 0.00109602, material res = 0.0014509, iters = 0
    Time 0.0001, Corr 336, res = 0.00110929, rel res = 0.00108952, material res = 0.00144219, iters = 0
    Time 0.0001, Corr 337, res = 0.00110311, rel res = 0.00108308, material res = 0.00143355, iters = 0
    Time 0.0001, Corr 338, res = 0.00109698, rel res = 0.00107667, material res = 0.00142496, iters = 0
    Time 0.0001, Corr 339, res = 0.00109089, rel res = 0.00107031, material res = 0.00141644, iters = 0
    Time 0.0001, Corr 340, res = 0.00108485, rel res = 0.001064, material res = 0.00140797, iters = 0
    Time 0.0001, Corr 341, res = 0.00107885, rel res = 0.00105772, material res = 0.00139956, iters = 0
    Time 0.0001, Corr 342, res = 0.00107289, rel res = 0.00105149, material res = 0.00139121, iters = 0
    Time 0.0001, Corr 343, res = 0.00106698, rel res = 0.00104531, material res = 0.00138292, iters = 0
    Time 0.0001, Corr 344, res = 0.00106111, rel res = 0.00103916, material res = 0.00137468, iters = 0
    Time 0.0001, Corr 345, res = 0.00105528, rel res = 0.00103306, material res = 0.0013665, iters = 0
    Time 0.0001, Corr 346, res = 0.0010495, rel res = 0.001027, material res = 0.00135838, iters = 0
    Time 0.0001, Corr 347, res = 0.00104376, rel res = 0.00102098, material res = 0.00135031, iters = 0
    Time 0.0001, Corr 348, res = 0.00103805, rel res = 0.001015, material res = 0.00134229, iters = 0
    Time 0.0001, Corr 349, res = 0.00103239, rel res = 0.00100906, material res = 0.00133433, iters = 0
    Time 0.0001, Corr 350, res = 0.00102677, rel res = 0.00100316, material res = 0.00132643, iters = 0
    Time 0.0001, Corr 351, res = 0.00102119, rel res = 0.0009973, material res = 0.00131858, iters = 0
    Time 0.0001, Corr 352, res = 0.00101565, rel res = 0.00099148, material res = 0.00131078, iters = 0
    Time 0.0001, Corr 353, res = 0.00101015, rel res = 0.0009857, material res = 0.00130303, iters = 0
    Time 0.0001, Corr 354, res = 0.00100468, rel res = 0.000979958, material res = 0.00129534, iters = 0
    Time 0.0001, Corr 355, res = 0.000999262, rel res = 0.000974256, material res = 0.00128769, iters = 0
    Time 0.0001, Corr 356, res = 0.000993877, rel res = 0.000968591, material res = 0.0012801, iters = 0
    Time 0.0001, Corr 357, res = 0.000988535, rel res = 0.000962964, material res = 0.00127256, iters = 0
    Time 0.0001, Corr 358, res = 0.000983224, rel res = 0.000957375, material res = 0.00126508, iters = 0
    Time 0.0001, Corr 359, res = 0.000977954, rel res = 0.000951823, material res = 0.00125764, iters = 0
    Time 0.0001, Corr 360, res = 0.000972723, rel res = 0.000946308, material res = 0.00125025, iters = 0
    Time 0.0001, Corr 361, res = 0.000967528, rel res = 0.000940829, material res = 0.00124291, iters = 0
    Time 0.0001, Corr 362, res = 0.000962367, rel res = 0.000935387, material res = 0.00123562, iters = 0
    Time 0.0001, Corr 363, res = 0.00095725, rel res = 0.000929981, material res = 0.00122838, iters = 0
    Time 0.0001, Corr 364, res = 0.000952161, rel res = 0.000924611, material res = 0.00122118, iters = 0
    Time 0.0001, Corr 365, res = 0.000947111, rel res = 0.000919276, material res = 0.00121404, iters = 0
    Time 0.0001, Corr 366, res = 0.000942097, rel res = 0.000913976, material res = 0.00120694, iters = 0
    Time 0.0001, Corr 367, res = 0.000937121, rel res = 0.000908711, material res = 0.00119989, iters = 0
    Time 0.0001, Corr 368, res = 0.000932179, rel res = 0.000903481, material res = 0.00119289, iters = 0
    Time 0.0001, Corr 369, res = 0.000927271, rel res = 0.000898285, material res = 0.00118593, iters = 0
    Time 0.0001, Corr 370, res = 0.000922398, rel res = 0.000893124, material res = 0.00117902, iters = 0
    Time 0.0001, Corr 371, res = 0.000917559, rel res = 0.000887996, material res = 0.00117215, iters = 0
    Time 0.0001, Corr 372, res = 0.000912752, rel res = 0.000882901, material res = 0.00116533, iters = 0
    Time 0.0001, Corr 373, res = 0.00090798, rel res = 0.00087784, material res = 0.00115856, iters = 0
    Time 0.0001, Corr 374, res = 0.000903243, rel res = 0.000872812, material res = 0.00115183, iters = 0
    Time 0.0001, Corr 375, res = 0.000898537, rel res = 0.000867816, material res = 0.00114514, iters = 0
    Time 0.0001, Corr 376, res = 0.000893871, rel res = 0.000862853, material res = 0.0011385, iters = 0
    Time 0.0001, Corr 377, res = 0.000889231, rel res = 0.000857922, material res = 0.0011319, iters = 0
    Time 0.0001, Corr 378, res = 0.000884625, rel res = 0.000853023, material res = 0.00112534, iters = 0
    Time 0.0001, Corr 379, res = 0.000880048, rel res = 0.000848156, material res = 0.00111883, iters = 0
    Time 0.0001, Corr 380, res = 0.000875508, rel res = 0.00084332, material res = 0.00111236, iters = 0
    Time 0.0001, Corr 381, res = 0.000870997, rel res = 0.000838516, material res = 0.00110593, iters = 0
    Time 0.0001, Corr 382, res = 0.00086652, rel res = 0.000833742, material res = 0.00109955, iters = 0
    Time 0.0001, Corr 383, res = 0.000862071, rel res = 0.000828999, material res = 0.0010932, iters = 0
    Time 0.0001, Corr 384, res = 0.000857655, rel res = 0.000824287, material res = 0.0010869, iters = 0
    Time 0.0001, Corr 385, res = 0.00085327, rel res = 0.000819605, material res = 0.00108064, iters = 0
    Time 0.0001, Corr 386, res = 0.000848914, rel res = 0.000814952, material res = 0.00107442, iters = 0
    Time 0.0001, Corr 387, res = 0.000844592, rel res = 0.00081033, material res = 0.00106824, iters = 0
    Time 0.0001, Corr 388, res = 0.000840295, rel res = 0.000805737, material res = 0.0010621, iters = 0
    Time 0.0001, Corr 389, res = 0.000836031, rel res = 0.000801173, material res = 0.001056, iters = 0
    Time 0.0001, Corr 390, res = 0.000831792, rel res = 0.000796639, material res = 0.00104994, iters = 0
    Time 0.0001, Corr 391, res = 0.000827586, rel res = 0.000792133, material res = 0.00104391, iters = 0
    Time 0.0001, Corr 392, res = 0.000823413, rel res = 0.000787656, material res = 0.00103793, iters = 0
    Time 0.0001, Corr 393, res = 0.000819261, rel res = 0.000783208, material res = 0.00103199, iters = 0
    Time 0.0001, Corr 394, res = 0.000815145, rel res = 0.000778788, material res = 0.00102608, iters = 0
    Time 0.0001, Corr 395, res = 0.000811051, rel res = 0.000774395, material res = 0.00102021, iters = 0
    Time 0.0001, Corr 396, res = 0.000806987, rel res = 0.000770031, material res = 0.00101438, iters = 0
    Time 0.0001, Corr 397, res = 0.000802953, rel res = 0.000765694, material res = 0.00100859, iters = 0
    Time 0.0001, Corr 398, res = 0.000798948, rel res = 0.000761384, material res = 0.00100283, iters = 0
    Time 0.0001, Corr 399, res = 0.000794971, rel res = 0.000757102, material res = 0.000997112, iters = 0
    Time 0.0001, Corr 400, res = 0.000791017, rel res = 0.000752846, material res = 0.00099143, iters = 0
    Time 0.0001, Corr 401, res = 0.000787092, rel res = 0.000748618, material res = 0.000985783, iters = 0
    Time 0.0001, Corr 402, res = 0.000783193, rel res = 0.000744415, material res = 0.000980173, iters = 0
    Time 0.0001, Corr 403, res = 0.000779322, rel res = 0.000740239, material res = 0.000974598, iters = 0
    Time 0.0001, Corr 404, res = 0.000775481, rel res = 0.00073609, material res = 0.000969059, iters = 0
    Time 0.0001, Corr 405, res = 0.000771661, rel res = 0.000731966, material res = 0.000963555, iters = 0
    Time 0.0001, Corr 406, res = 0.000767869, rel res = 0.000727868, material res = 0.000958086, iters = 0
    Time 0.0001, Corr 407, res = 0.000764103, rel res = 0.000723796, material res = 0.000952652, iters = 0
    Time 0.0001, Corr 408, res = 0.000760363, rel res = 0.000719749, material res = 0.000947252, iters = 0
    Time 0.0001, Corr 409, res = 0.000756649, rel res = 0.000715727, material res = 0.000941886, iters = 0
    Time 0.0001, Corr 410, res = 0.000752958, rel res = 0.00071173, material res = 0.000936554, iters = 0
    Time 0.0001, Corr 411, res = 0.000749291, rel res = 0.000707758, material res = 0.000931256, iters = 0
    Time 0.0001, Corr 412, res = 0.000745654, rel res = 0.00070381, material res = 0.000925992, iters = 0
    Time 0.0001, Corr 413, res = 0.000742039, rel res = 0.000699888, material res = 0.00092076, iters = 0
    Time 0.0001, Corr 414, res = 0.00073845, rel res = 0.000695989, material res = 0.000915562, iters = 0
    Time 0.0001, Corr 415, res = 0.000734884, rel res = 0.000692114, material res = 0.000910396, iters = 0
    Time 0.0001, Corr 416, res = 0.000731342, rel res = 0.000688264, material res = 0.000905263, iters = 0
    Time 0.0001, Corr 417, res = 0.000727822, rel res = 0.000684437, material res = 0.000900161, iters = 0
    Time 0.0001, Corr 418, res = 0.00072433, rel res = 0.000680634, material res = 0.000895092, iters = 0
    Time 0.0001, Corr 419, res = 0.000720863, rel res = 0.000676854, material res = 0.000890055, iters = 0
    Time 0.0001, Corr 420, res = 0.000717416, rel res = 0.000673097, material res = 0.000885049, iters = 0
    Time 0.0001, Corr 421, res = 0.000713991, rel res = 0.000669363, material res = 0.000880074, iters = 0
    Time 0.0001, Corr 422, res = 0.000710593, rel res = 0.000665653, material res = 0.000875131, iters = 0
    Time 0.0001, Corr 423, res = 0.000707215, rel res = 0.000661965, material res = 0.000870218, iters = 0
    Time 0.0001, Corr 424, res = 0.00070386, rel res = 0.000658299, material res = 0.000865336, iters = 0
    Time 0.0001, Corr 425, res = 0.000700527, rel res = 0.000654656, material res = 0.000860484, iters = 0
    Time 0.0001, Corr 426, res = 0.000697217, rel res = 0.000651036, material res = 0.000855663, iters = 0
    Time 0.0001, Corr 427, res = 0.000693934, rel res = 0.000647437, material res = 0.000850871, iters = 0
    Time 0.0001, Corr 428, res = 0.000690666, rel res = 0.00064386, material res = 0.000846109, iters = 0
    Time 0.0001, Corr 429, res = 0.000687424, rel res = 0.000640305, material res = 0.000841377, iters = 0
    Time 0.0001, Corr 430, res = 0.000684208, rel res = 0.000636772, material res = 0.000836674, iters = 0
    Time 0.0001, Corr 431, res = 0.000681003, rel res = 0.00063326, material res = 0.000832, iters = 0
    Time 0.0001, Corr 432, res = 0.000677828, rel res = 0.000629769, material res = 0.000827355, iters = 0
    Time 0.0001, Corr 433, res = 0.000674671, rel res = 0.0006263, material res = 0.000822739, iters = 0
    Time 0.0001, Corr 434, res = 0.000671535, rel res = 0.000622852, material res = 0.000818151, iters = 0
    Time 0.0001, Corr 435, res = 0.000668423, rel res = 0.000619424, material res = 0.000813591, iters = 0
    Time 0.0001, Corr 436, res = 0.000665327, rel res = 0.000616017, material res = 0.00080906, iters = 0
    Time 0.0001, Corr 437, res = 0.000662255, rel res = 0.000612631, material res = 0.000804556, iters = 0
    Time 0.0001, Corr 438, res = 0.0006592, rel res = 0.000609265, material res = 0.00080008, iters = 0
    Time 0.0001, Corr 439, res = 0.000656171, rel res = 0.00060592, material res = 0.000795631, iters = 0
    Time 0.0001, Corr 440, res = 0.000653158, rel res = 0.000602594, material res = 0.00079121, iters = 0
    Time 0.0001, Corr 441, res = 0.000650166, rel res = 0.000599289, material res = 0.000786816, iters = 0
    Time 0.0001, Corr 442, res = 0.000647193, rel res = 0.000596003, material res = 0.000782448, iters = 0
    Time 0.0001, Corr 443, res = 0.000644239, rel res = 0.000592737, material res = 0.000778108, iters = 0
    Time 0.0001, Corr 444, res = 0.000641311, rel res = 0.000589491, material res = 0.000773794, iters = 0
    Time 0.0001, Corr 445, res = 0.000638397, rel res = 0.000586264, material res = 0.000769506, iters = 0
    Time 0.0001, Corr 446, res = 0.000635502, rel res = 0.000583057, material res = 0.000765244, iters = 0
    Time 0.0001, Corr 447, res = 0.000632629, rel res = 0.000579868, material res = 0.000761008, iters = 0
    Time 0.0001, Corr 448, res = 0.000629773, rel res = 0.000576699, material res = 0.000756798, iters = 0
    Time 0.0001, Corr 449, res = 0.000626935, rel res = 0.000573548, material res = 0.000752614, iters = 0
    Time 0.0001, Corr 450, res = 0.000624113, rel res = 0.000570417, material res = 0.000748455, iters = 0
    Time 0.0001, Corr 451, res = 0.000621318, rel res = 0.000567304, material res = 0.000744321, iters = 0
    Time 0.0001, Corr 452, res = 0.000618537, rel res = 0.000564209, material res = 0.000740213, iters = 0
    Time 0.0001, Corr 453, res = 0.000615777, rel res = 0.000561133, material res = 0.000736129, iters = 0
    Time 0.0001, Corr 454, res = 0.00061303, rel res = 0.000558075, material res = 0.00073207, iters = 0
    Time 0.0001, Corr 455, res = 0.000610303, rel res = 0.000555036, material res = 0.000728035, iters = 0
    Time 0.0001, Corr 456, res = 0.000607594, rel res = 0.000552014, material res = 0.000724025, iters = 0
    Time 0.0001, Corr 457, res = 0.000604904, rel res = 0.00054901, material res = 0.000720039, iters = 0
    Time 0.0001, Corr 458, res = 0.000602232, rel res = 0.000546024, material res = 0.000716077, iters = 0
    Time 0.0001, Corr 459, res = 0.000599576, rel res = 0.000543056, material res = 0.000712139, iters = 0
    Time 0.0001, Corr 460, res = 0.00059694, rel res = 0.000540105, material res = 0.000708224, iters = 0
    Time 0.0001, Corr 461, res = 0.000594319, rel res = 0.000537172, material res = 0.000704333, iters = 0
    Time 0.0001, Corr 462, res = 0.00059172, rel res = 0.000534256, material res = 0.000700466, iters = 0
    Time 0.0001, Corr 463, res = 0.00058913, rel res = 0.000531357, material res = 0.000696621, iters = 0
    Time 0.0001, Corr 464, res = 0.000586561, rel res = 0.000528475, material res = 0.0006928, iters = 0
    Time 0.0001, Corr 465, res = 0.000584005, rel res = 0.00052561, material res = 0.000689002, iters = 0
    Time 0.0001, Corr 466, res = 0.000581469, rel res = 0.000522762, material res = 0.000685226, iters = 0
    Time 0.0001, Corr 467, res = 0.000578951, rel res = 0.00051993, material res = 0.000681473, iters = 0
    Time 0.0001, Corr 468, res = 0.000576451, rel res = 0.000517115, material res = 0.000677742, iters = 0
    Time 0.0001, Corr 469, res = 0.000573963, rel res = 0.000514317, material res = 0.000674034, iters = 0
    Time 0.0001, Corr 470, res = 0.000571494, rel res = 0.000511535, material res = 0.000670347, iters = 0
    Time 0.0001, Corr 471, res = 0.000569039, rel res = 0.000508769, material res = 0.000666683, iters = 0
    Time 0.0001, Corr 472, res = 0.000566601, rel res = 0.00050602, material res = 0.00066304, iters = 0
    Time 0.0001, Corr 473, res = 0.000564178, rel res = 0.000503287, material res = 0.00065942, iters = 0
    Time 0.0001, Corr 474, res = 0.00056177, rel res = 0.000500569, material res = 0.00065582, iters = 0
    Time 0.0001, Corr 475, res = 0.000559382, rel res = 0.000497867, material res = 0.000652242, iters = 0
    Time 0.0001, Corr 476, res = 0.000557001, rel res = 0.000495181, material res = 0.000648685, iters = 0
    Time 0.0001, Corr 477, res = 0.000554642, rel res = 0.000492511, material res = 0.00064515, iters = 0
    Time 0.0001, Corr 478, res = 0.000552295, rel res = 0.000489856, material res = 0.000641635, iters = 0
    Time 0.0001, Corr 479, res = 0.000549969, rel res = 0.000487217, material res = 0.000638141, iters = 0
    Time 0.0001, Corr 480, res = 0.000547651, rel res = 0.000484593, material res = 0.000634668, iters = 0
    Time 0.0001, Corr 481, res = 0.000545355, rel res = 0.000481984, material res = 0.000631215, iters = 0
    Time 0.0001, Corr 482, res = 0.000543067, rel res = 0.000479391, material res = 0.000627782, iters = 0
    Time 0.0001, Corr 483, res = 0.000540798, rel res = 0.000476812, material res = 0.00062437, iters = 0
    Time 0.0001, Corr 484, res = 0.000538541, rel res = 0.000474248, material res = 0.000620978, iters = 0
    Time 0.0001, Corr 485, res = 0.000536302, rel res = 0.000471699, material res = 0.000617606, iters = 0
    Time 0.0001, Corr 486, res = 0.000534076, rel res = 0.000469165, material res = 0.000614254, iters = 0
    Time 0.0001, Corr 487, res = 0.00053186, rel res = 0.000466646, material res = 0.000610921, iters = 0
    Time 0.0001, Corr 488, res = 0.000529665, rel res = 0.000464141, material res = 0.000607608, iters = 0
    Time 0.0001, Corr 489, res = 0.000527481, rel res = 0.00046165, material res = 0.000604314, iters = 0
    Time 0.0001, Corr 490, res = 0.000525309, rel res = 0.000459174, material res = 0.00060104, iters = 0
    Time 0.0001, Corr 491, res = 0.000523154, rel res = 0.000456712, material res = 0.000597785, iters = 0
    Time 0.0001, Corr 492, res = 0.000521012, rel res = 0.000454264, material res = 0.000594549, iters = 0
    Time 0.0001, Corr 493, res = 0.000518881, rel res = 0.00045183, material res = 0.000591332, iters = 0
    Time 0.0001, Corr 494, res = 0.00051677, rel res = 0.00044941, material res = 0.000588134, iters = 0
    Time 0.0001, Corr 495, res = 0.000514667, rel res = 0.000447005, material res = 0.000584954, iters = 0
    Time 0.0001, Corr 496, res = 0.000512581, rel res = 0.000444613, material res = 0.000581793, iters = 0
    Time 0.0001, Corr 497, res = 0.000510502, rel res = 0.000442234, material res = 0.00057865, iters = 0
    Time 0.0001, Corr 498, res = 0.000508442, rel res = 0.000439869, material res = 0.000575526, iters = 0
    Time 0.0001, Corr 499, res = 0.000506394, rel res = 0.000437518, material res = 0.00057242, iters = 0
    Time 0.0001, Corr 500, res = 0.000504358, rel res = 0.00043518, material res = 0.000569332, iters = 0
    Time 0.0001, Corr 501, res = 0.000502334, rel res = 0.000432856, material res = 0.000566262, iters = 0
    Time 0.0001, Corr 502, res = 0.000500327, rel res = 0.000430545, material res = 0.000563209, iters = 0
    Time 0.0001, Corr 503, res = 0.000498329, rel res = 0.000428247, material res = 0.000560175, iters = 0
    Time 0.0001, Corr 504, res = 0.000496345, rel res = 0.000425962, material res = 0.000557158, iters = 0
    Time 0.0001, Corr 505, res = 0.000494376, rel res = 0.00042369, material res = 0.000554158, iters = 0
    Time 0.0001, Corr 506, res = 0.000492418, rel res = 0.000421431, material res = 0.000551176, iters = 0
    Time 0.0001, Corr 507, res = 0.000490468, rel res = 0.000419185, material res = 0.000548211, iters = 0
    Time 0.0001, Corr 508, res = 0.000488535, rel res = 0.000416952, material res = 0.000545263, iters = 0
    Time 0.0001, Corr 509, res = 0.000486614, rel res = 0.000414731, material res = 0.000542333, iters = 0
    Time 0.0001, Corr 510, res = 0.000484701, rel res = 0.000412523, material res = 0.000539419, iters = 0
    Time 0.0001, Corr 511, res = 0.000482806, rel res = 0.000410328, material res = 0.000536522, iters = 0
    Time 0.0001, Corr 512, res = 0.000480921, rel res = 0.000408145, material res = 0.000533642, iters = 0
    Time 0.0001, Corr 513, res = 0.000479048, rel res = 0.000405974, material res = 0.000530778, iters = 0
    Time 0.0001, Corr 514, res = 0.000477185, rel res = 0.000403815, material res = 0.000527931, iters = 0
    Time 0.0001, Corr 515, res = 0.000475334, rel res = 0.000401669, material res = 0.0005251, iters = 0
    Time 0.0001, Corr 516, res = 0.000473494, rel res = 0.000399535, material res = 0.000522285, iters = 0
    Time 0.0001, Corr 517, res = 0.000471667, rel res = 0.000397413, material res = 0.000519487, iters = 0
    Time 0.0001, Corr 518, res = 0.000469852, rel res = 0.000395303, material res = 0.000516705, iters = 0
    Time 0.0001, Corr 519, res = 0.000468045, rel res = 0.000393205, material res = 0.000513938, iters = 0
    Time 0.0001, Corr 520, res = 0.000466256, rel res = 0.000391119, material res = 0.000511188, iters = 0
    Time 0.0001, Corr 521, res = 0.000464472, rel res = 0.000389044, material res = 0.000508453, iters = 0
    Time 0.0001, Corr 522, res = 0.000462702, rel res = 0.000386981, material res = 0.000505734, iters = 0
    Time 0.0001, Corr 523, res = 0.000460942, rel res = 0.00038493, material res = 0.00050303, iters = 0
    Time 0.0001, Corr 524, res = 0.000459195, rel res = 0.000382891, material res = 0.000500342, iters = 0
    Time 0.0001, Corr 525, res = 0.00045746, rel res = 0.000380862, material res = 0.000497669, iters = 0
    Time 0.0001, Corr 526, res = 0.000455732, rel res = 0.000378846, material res = 0.000495012, iters = 0
    Time 0.0001, Corr 527, res = 0.000454013, rel res = 0.00037684, material res = 0.00049237, iters = 0
    Time 0.0001, Corr 528, res = 0.000452308, rel res = 0.000374846, material res = 0.000489742, iters = 0
    Time 0.0001, Corr 529, res = 0.000450617, rel res = 0.000372863, material res = 0.00048713, iters = 0
    Time 0.0001, Corr 530, res = 0.000448932, rel res = 0.000370891, material res = 0.000484533, iters = 0
    Time 0.0001, Corr 531, res = 0.000447258, rel res = 0.00036893, material res = 0.00048195, iters = 0
    Time 0.0001, Corr 532, res = 0.000445594, rel res = 0.00036698, material res = 0.000479382, iters = 0
    Time 0.0001, Corr 533, res = 0.000443942, rel res = 0.000365041, material res = 0.000476828, iters = 0
    Time 0.0001, Corr 534, res = 0.0004423, rel res = 0.000363113, material res = 0.00047429, iters = 0
    Time 0.0001, Corr 535, res = 0.000440668, rel res = 0.000361195, material res = 0.000471765, iters = 0
    Time 0.0001, Corr 536, res = 0.000439048, rel res = 0.000359288, material res = 0.000469255, iters = 0
    Time 0.0001, Corr 537, res = 0.000437436, rel res = 0.000357392, material res = 0.000466759, iters = 0
    Time 0.0001, Corr 538, res = 0.000435831, rel res = 0.000355507, material res = 0.000464277, iters = 0
    Time 0.0001, Corr 539, res = 0.00043424, rel res = 0.000353632, material res = 0.000461809, iters = 0
    Time 0.0001, Corr 540, res = 0.000432658, rel res = 0.000351767, material res = 0.000459355, iters = 0
    Time 0.0001, Corr 541, res = 0.000431085, rel res = 0.000349913, material res = 0.000456915, iters = 0
    Time 0.0001, Corr 542, res = 0.000429605, rel res = 0.000348069, material res = 0.000454489, iters = 0
    Time 0.0001, Corr 543, res = 0.000428225, rel res = 0.000346235, material res = 0.000452077, iters = 0
    Time 0.0001, Corr 544, res = 0.000426856, rel res = 0.000344412, material res = 0.000449678, iters = 0
    Time 0.0001, Corr 545, res = 0.000425495, rel res = 0.000342599, material res = 0.000447292, iters = 0
    Time 0.0001, Corr 546, res = 0.000424141, rel res = 0.000340795, material res = 0.00044492, iters = 0
    Time 0.0001, Corr 547, res = 0.000422794, rel res = 0.000339002, material res = 0.000442562, iters = 0
    Time 0.0001, Corr 548, res = 0.000421458, rel res = 0.000337219, material res = 0.000440216, iters = 0
    Time 0.0001, Corr 549, res = 0.000420128, rel res = 0.000335445, material res = 0.000437884, iters = 0
    Time 0.0001, Corr 550, res = 0.000418806, rel res = 0.000333682, material res = 0.000435565, iters = 0
    Time 0.0001, Corr 551, res = 0.000417493, rel res = 0.000331928, material res = 0.000433259, iters = 0
    Time 0.0001, Corr 552, res = 0.000416184, rel res = 0.000330184, material res = 0.000430966, iters = 0
    Time 0.0001, Corr 553, res = 0.000414889, rel res = 0.000328449, material res = 0.000428686, iters = 0
    Time 0.0001, Corr 554, res = 0.000413595, rel res = 0.000326724, material res = 0.000426418, iters = 0
    Time 0.0001, Corr 555, res = 0.000412308, rel res = 0.000325009, material res = 0.000424164, iters = 0
    Time 0.0001, Corr 556, res = 0.000411035, rel res = 0.000323303, material res = 0.000421922, iters = 0
    Time 0.0001, Corr 557, res = 0.000409766, rel res = 0.000321606, material res = 0.000419692, iters = 0
    Time 0.0001, Corr 558, res = 0.000408505, rel res = 0.000319919, material res = 0.000417475, iters = 0
    Time 0.0001, Corr 559, res = 0.000407253, rel res = 0.000318241, material res = 0.00041527, iters = 0
    Time 0.0001, Corr 560, res = 0.000406006, rel res = 0.000316573, material res = 0.000413078, iters = 0
    Time 0.0001, Corr 561, res = 0.000404767, rel res = 0.000314913, material res = 0.000410898, iters = 0
    Time 0.0001, Corr 562, res = 0.000403535, rel res = 0.000313263, material res = 0.00040873, iters = 0
    Time 0.0001, Corr 563, res = 0.000402311, rel res = 0.000311622, material res = 0.000406574, iters = 0
    Time 0.0001, Corr 564, res = 0.000401093, rel res = 0.000309989, material res = 0.00040443, iters = 0
    Time 0.0001, Corr 565, res = 0.000399883, rel res = 0.000308366, material res = 0.000402298, iters = 0
    Time 0.0001, Corr 566, res = 0.000398679, rel res = 0.000306752, material res = 0.000400178, iters = 0
    Time 0.0001, Corr 567, res = 0.000397483, rel res = 0.000305146, material res = 0.000398069, iters = 0
    Time 0.0001, Corr 568, res = 0.000396296, rel res = 0.00030355, material res = 0.000395973, iters = 0
    Time 0.0001, Corr 569, res = 0.00039511, rel res = 0.000301962, material res = 0.000393888, iters = 0
    Time 0.0001, Corr 570, res = 0.000393934, rel res = 0.000300382, material res = 0.000391814, iters = 0
    Time 0.0001, Corr 571, res = 0.000392766, rel res = 0.000298812, material res = 0.000389753, iters = 0
    Time 0.0001, Corr 572, res = 0.000391605, rel res = 0.00029725, material res = 0.000387702, iters = 0
    Time 0.0001, Corr 573, res = 0.00039045, rel res = 0.000295696, material res = 0.000385663, iters = 0
    Time 0.0001, Corr 574, res = 0.000389299, rel res = 0.000294151, material res = 0.000383635, iters = 0
    Time 0.0001, Corr 575, res = 0.000388158, rel res = 0.000292615, material res = 0.000381619, iters = 0
    Time 0.0001, Corr 576, res = 0.000387022, rel res = 0.000291087, material res = 0.000379613, iters = 0
    Time 0.0001, Corr 577, res = 0.000385894, rel res = 0.000289567, material res = 0.000377619, iters = 0
    Time 0.0001, Corr 578, res = 0.000384771, rel res = 0.000288055, material res = 0.000375636, iters = 0
    Time 0.0001, Corr 579, res = 0.000383654, rel res = 0.000286552, material res = 0.000373664, iters = 0
    Time 0.0001, Corr 580, res = 0.000382544, rel res = 0.000285057, material res = 0.000371702, iters = 0
    Time 0.0001, Corr 581, res = 0.000381439, rel res = 0.00028357, material res = 0.000369752, iters = 0
    Time 0.0001, Corr 582, res = 0.00038034, rel res = 0.000282091, material res = 0.000367812, iters = 0
    Time 0.0001, Corr 583, res = 0.000379254, rel res = 0.000280621, material res = 0.000365883, iters = 0
    Time 0.0001, Corr 584, res = 0.000378169, rel res = 0.000279158, material res = 0.000363964, iters = 0
    Time 0.0001, Corr 585, res = 0.000377088, rel res = 0.000277703, material res = 0.000362056, iters = 0
    Time 0.0001, Corr 586, res = 0.000376017, rel res = 0.000276256, material res = 0.000360159, iters = 0
    Time 0.0001, Corr 587, res = 0.000374953, rel res = 0.000274817, material res = 0.000358272, iters = 0
    Time 0.0001, Corr 588, res = 0.000373889, rel res = 0.000273386, material res = 0.000356395, iters = 0
    Time 0.0001, Corr 589, res = 0.000372839, rel res = 0.000271962, material res = 0.000354529, iters = 0
    Time 0.0001, Corr 590, res = 0.000371791, rel res = 0.000270547, material res = 0.000352673, iters = 0
    Time 0.0001, Corr 591, res = 0.000370747, rel res = 0.000269139, material res = 0.000350827, iters = 0
    Time 0.0001, Corr 592, res = 0.000369711, rel res = 0.000267738, material res = 0.000348991, iters = 0
    Time 0.0001, Corr 593, res = 0.000368683, rel res = 0.000266345, material res = 0.000347165, iters = 0
    Time 0.0001, Corr 594, res = 0.000367656, rel res = 0.00026496, material res = 0.00034535, iters = 0
    Time 0.0001, Corr 595, res = 0.000366638, rel res = 0.000263582, material res = 0.000343544, iters = 0
    Time 0.0001, Corr 596, res = 0.000365624, rel res = 0.000262212, material res = 0.000341748, iters = 0
    Time 0.0001, Corr 597, res = 0.000364617, rel res = 0.000260849, material res = 0.000339962, iters = 0
    Time 0.0001, Corr 598, res = 0.000363616, rel res = 0.000259494, material res = 0.000338186, iters = 0
    Time 0.0001, Corr 599, res = 0.000362619, rel res = 0.000258145, material res = 0.00033642, iters = 0
    Time 0.0001, Corr 600, res = 0.000361627, rel res = 0.000256804, material res = 0.000334663, iters = 0
    Time 0.0001, Corr 601, res = 0.000360645, rel res = 0.000255471, material res = 0.000332916, iters = 0
    Time 0.0001, Corr 602, res = 0.000359663, rel res = 0.000254144, material res = 0.000331178, iters = 0
    Time 0.0001, Corr 603, res = 0.000358689, rel res = 0.000252825, material res = 0.00032945, iters = 0
    Time 0.0001, Corr 604, res = 0.00035772, rel res = 0.000251513, material res = 0.000327731, iters = 0
    Time 0.0001, Corr 605, res = 0.000356757, rel res = 0.000250208, material res = 0.000326021, iters = 0
    Time 0.0001, Corr 606, res = 0.000355799, rel res = 0.000248909, material res = 0.000324321, iters = 0
    Time 0.0001, Corr 607, res = 0.000354847, rel res = 0.000247618, material res = 0.00032263, iters = 0
    Time 0.0001, Corr 608, res = 0.000353902, rel res = 0.000246334, material res = 0.000320949, iters = 0
    Time 0.0001, Corr 609, res = 0.000352958, rel res = 0.000245057, material res = 0.000319276, iters = 0
    Time 0.0001, Corr 610, res = 0.000352023, rel res = 0.000243787, material res = 0.000317613, iters = 0
    Time 0.0001, Corr 611, res = 0.00035109, rel res = 0.000242523, material res = 0.000315959, iters = 0
    Time 0.0001, Corr 612, res = 0.000350164, rel res = 0.000241266, material res = 0.000314313, iters = 0
    Time 0.0001, Corr 613, res = 0.000349244, rel res = 0.000240016, material res = 0.000312677, iters = 0
    Time 0.0001, Corr 614, res = 0.000348326, rel res = 0.000238773, material res = 0.000311049, iters = 0
    Time 0.0001, Corr 615, res = 0.000347417, rel res = 0.000237536, material res = 0.000309431, iters = 0
    Time 0.0001, Corr 616, res = 0.000346511, rel res = 0.000236306, material res = 0.000307821, iters = 0
    Time 0.0001, Corr 617, res = 0.000345609, rel res = 0.000235083, material res = 0.000306219, iters = 0
    Time 0.0001, Corr 618, res = 0.000344713, rel res = 0.000233866, material res = 0.000304627, iters = 0
    Time 0.0001, Corr 619, res = 0.00034382, rel res = 0.000232656, material res = 0.000303043, iters = 0
    Time 0.0001, Corr 620, res = 0.000342935, rel res = 0.000231452, material res = 0.000301468, iters = 0
    Time 0.0001, Corr 621, res = 0.000342053, rel res = 0.000230255, material res = 0.000299901, iters = 0
    Time 0.0001, Corr 622, res = 0.000341179, rel res = 0.000229064, material res = 0.000298343, iters = 0
    Time 0.0001, Corr 623, res = 0.000340306, rel res = 0.000227879, material res = 0.000296793, iters = 0
    Time 0.0001, Corr 624, res = 0.000339439, rel res = 0.000226701, material res = 0.000295251, iters = 0
    Time 0.0001, Corr 625, res = 0.000338578, rel res = 0.000225529, material res = 0.000293718, iters = 0
    Time 0.0001, Corr 626, res = 0.000337717, rel res = 0.000224363, material res = 0.000292193, iters = 0
    Time 0.0001, Corr 627, res = 0.000336869, rel res = 0.000223204, material res = 0.000290677, iters = 0
    Time 0.0001, Corr 628, res = 0.000336019, rel res = 0.00022205, material res = 0.000289168, iters = 0
    Time 0.0001, Corr 629, res = 0.000335174, rel res = 0.000220903, material res = 0.000287668, iters = 0
    Time 0.0001, Corr 630, res = 0.000334335, rel res = 0.000219762, material res = 0.000286176, iters = 0
    Time 0.0001, Corr 631, res = 0.000333501, rel res = 0.000218627, material res = 0.000284691, iters = 0
    Time 0.0001, Corr 632, res = 0.000332673, rel res = 0.000217498, material res = 0.000283215, iters = 0
    Time 0.0001, Corr 633, res = 0.000331847, rel res = 0.000216376, material res = 0.000281747, iters = 0
    Time 0.0001, Corr 634, res = 0.000331028, rel res = 0.000215259, material res = 0.000280287, iters = 0
    Time 0.0001, Corr 635, res = 0.00033021, rel res = 0.000214148, material res = 0.000278834, iters = 0
    Time 0.0001, Corr 636, res = 0.000329397, rel res = 0.000213043, material res = 0.000277389, iters = 0
    Time 0.0001, Corr 637, res = 0.000328589, rel res = 0.000211944, material res = 0.000275953, iters = 0
    Time 0.0001, Corr 638, res = 0.000327784, rel res = 0.000210851, material res = 0.000274523, iters = 0
    Time 0.0001, Corr 639, res = 0.000326987, rel res = 0.000209763, material res = 0.000273102, iters = 0
    Time 0.0001, Corr 640, res = 0.000326192, rel res = 0.000208682, material res = 0.000271688, iters = 0
    Time 0.0001, Corr 641, res = 0.0003254, rel res = 0.000207606, material res = 0.000270282, iters = 0
    Time 0.0001, Corr 642, res = 0.000324615, rel res = 0.000206535, material res = 0.000268883, iters = 0
    Time 0.0001, Corr 643, res = 0.000323835, rel res = 0.000205471, material res = 0.000267492, iters = 0
    Time 0.0001, Corr 644, res = 0.000323055, rel res = 0.000204412, material res = 0.000266108, iters = 0
    Time 0.0001, Corr 645, res = 0.000322281, rel res = 0.000203359, material res = 0.000264732, iters = 0
    Time 0.0001, Corr 646, res = 0.00032151, rel res = 0.000202311, material res = 0.000263363, iters = 0
    Time 0.0001, Corr 647, res = 0.000320748, rel res = 0.000201269, material res = 0.000262001, iters = 0
    Time 0.0001, Corr 648, res = 0.000319987, rel res = 0.000200233, material res = 0.000260647, iters = 0
    Time 0.0001, Corr 649, res = 0.00031923, rel res = 0.000199202, material res = 0.000259299, iters = 0
    Time 0.0001, Corr 650, res = 0.000318473, rel res = 0.000198176, material res = 0.000257959, iters = 0
    Time 0.0001, Corr 651, res = 0.000317724, rel res = 0.000197156, material res = 0.000256627, iters = 0
    Time 0.0001, Corr 652, res = 0.00031698, rel res = 0.000196141, material res = 0.000255301, iters = 0
    Time 0.0001, Corr 653, res = 0.000316241, rel res = 0.000195132, material res = 0.000253983, iters = 0
    Time 0.0001, Corr 654, res = 0.000315501, rel res = 0.000194128, material res = 0.000252671, iters = 0
    Time 0.0001, Corr 655, res = 0.000314769, rel res = 0.000193129, material res = 0.000251367, iters = 0
    Time 0.0001, Corr 656, res = 0.000314038, rel res = 0.000192136, material res = 0.000250069, iters = 0
    Time 0.0001, Corr 657, res = 0.000313312, rel res = 0.000191148, material res = 0.000248778, iters = 0
    Time 0.0001, Corr 658, res = 0.000312588, rel res = 0.000190165, material res = 0.000247495, iters = 0
    Time 0.0001, Corr 659, res = 0.00031187, rel res = 0.000189187, material res = 0.000246218, iters = 0
    Time 0.0001, Corr 660, res = 0.000311157, rel res = 0.000188214, material res = 0.000244948, iters = 0
    Time 0.0001, Corr 661, res = 0.000310445, rel res = 0.000187247, material res = 0.000243684, iters = 0
    Time 0.0001, Corr 662, res = 0.000309738, rel res = 0.000186284, material res = 0.000242428, iters = 0
    Time 0.0001, Corr 663, res = 0.000309037, rel res = 0.000185327, material res = 0.000241178, iters = 0
    Time 0.0001, Corr 664, res = 0.000308336, rel res = 0.000184375, material res = 0.000239935, iters = 0
    Time 0.0001, Corr 665, res = 0.000307642, rel res = 0.000183428, material res = 0.000238698, iters = 0
    Time 0.0001, Corr 666, res = 0.000306949, rel res = 0.000182486, material res = 0.000237468, iters = 0
    Time 0.0001, Corr 667, res = 0.00030626, rel res = 0.000181548, material res = 0.000236244, iters = 0
    Time 0.0001, Corr 668, res = 0.000305575, rel res = 0.000180616, material res = 0.000235027, iters = 0
    Time 0.0001, Corr 669, res = 0.000304892, rel res = 0.000179689, material res = 0.000233817, iters = 0
    Time 0.0001, Corr 670, res = 0.000304214, rel res = 0.000178766, material res = 0.000232613, iters = 0
    Time 0.0001, Corr 671, res = 0.000303539, rel res = 0.000177849, material res = 0.000231415, iters = 0
    Time 0.0001, Corr 672, res = 0.00030287, rel res = 0.000176936, material res = 0.000230224, iters = 0
    Time 0.0001, Corr 673, res = 0.0003022, rel res = 0.000176028, material res = 0.000229039, iters = 0
    Time 0.0001, Corr 674, res = 0.000301538, rel res = 0.000175125, material res = 0.00022786, iters = 0
    Time 0.0001, Corr 675, res = 0.000300878, rel res = 0.000174226, material res = 0.000226687, iters = 0
    Time 0.0001, Corr 676, res = 0.000300219, rel res = 0.000173332, material res = 0.000225521, iters = 0
    Time 0.0001, Corr 677, res = 0.000299563, rel res = 0.000172443, material res = 0.000224361, iters = 0
    Time 0.0001, Corr 678, res = 0.000298918, rel res = 0.000171559, material res = 0.000223207, iters = 0
    Time 0.0001, Corr 679, res = 0.000298267, rel res = 0.000170679, material res = 0.000222059, iters = 0
    Time 0.0001, Corr 680, res = 0.000297623, rel res = 0.000169804, material res = 0.000220917, iters = 0
    Time 0.0001, Corr 681, res = 0.000296983, rel res = 0.000168934, material res = 0.000219781, iters = 0
    Time 0.0001, Corr 682, res = 0.000296346, rel res = 0.000168068, material res = 0.000218652, iters = 0
    Time 0.0001, Corr 683, res = 0.000295713, rel res = 0.000167206, material res = 0.000217528, iters = 0
    Time 0.0001, Corr 684, res = 0.000295081, rel res = 0.000166349, material res = 0.00021641, iters = 0
    Time 0.0001, Corr 685, res = 0.000294452, rel res = 0.000165497, material res = 0.000215298, iters = 0
    Time 0.0001, Corr 686, res = 0.000293829, rel res = 0.000164649, material res = 0.000214192, iters = 0
    Time 0.0001, Corr 687, res = 0.000293206, rel res = 0.000163806, material res = 0.000213092, iters = 0
    Time 0.0001, Corr 688, res = 0.00029259, rel res = 0.000162966, material res = 0.000211997, iters = 0
    Time 0.0001, Corr 689, res = 0.000291977, rel res = 0.000162132, material res = 0.000210909, iters = 0
    Time 0.0001, Corr 690, res = 0.000291364, rel res = 0.000161302, material res = 0.000209826, iters = 0
    Time 0.0001, Corr 691, res = 0.000290756, rel res = 0.000160476, material res = 0.000208749, iters = 0
    Time 0.0001, Corr 692, res = 0.000290148, rel res = 0.000159654, material res = 0.000207677, iters = 0
    Time 0.0001, Corr 693, res = 0.000289551, rel res = 0.000158837, material res = 0.000206611, iters = 0
    Time 0.0001, Corr 694, res = 0.000288948, rel res = 0.000158024, material res = 0.000205551, iters = 0
    Time 0.0001, Corr 695, res = 0.000288352, rel res = 0.000157215, material res = 0.000204496, iters = 0
    Time 0.0001, Corr 696, res = 0.000287756, rel res = 0.00015641, material res = 0.000203447, iters = 0
    Time 0.0001, Corr 697, res = 0.000287169, rel res = 0.00015561, material res = 0.000202404, iters = 0
    Time 0.0001, Corr 698, res = 0.000286579, rel res = 0.000154814, material res = 0.000201366, iters = 0
    Time 0.0001, Corr 699, res = 0.000285995, rel res = 0.000154022, material res = 0.000200333, iters = 0
    Time 0.0001, Corr 700, res = 0.000285413, rel res = 0.000153234, material res = 0.000199306, iters = 0
    Time 0.0001, Corr 701, res = 0.000284835, rel res = 0.00015245, material res = 0.000198284, iters = 0
    Time 0.0001, Corr 702, res = 0.000284257, rel res = 0.00015167, material res = 0.000197268, iters = 0
    Time 0.0001, Corr 703, res = 0.000283686, rel res = 0.000150895, material res = 0.000196257, iters = 0
    Time 0.0001, Corr 704, res = 0.000283116, rel res = 0.000150123, material res = 0.000195251, iters = 0
    Time 0.0001, Corr 705, res = 0.000282546, rel res = 0.000149356, material res = 0.00019425, iters = 0
    Time 0.0001, Corr 706, res = 0.00028198, rel res = 0.000148592, material res = 0.000193255, iters = 0
    Time 0.0001, Corr 707, res = 0.000281423, rel res = 0.000147833, material res = 0.000192265, iters = 0
    Time 0.0001, Corr 708, res = 0.000280863, rel res = 0.000147077, material res = 0.00019128, iters = 0
    Time 0.0001, Corr 709, res = 0.000280306, rel res = 0.000146326, material res = 0.000190301, iters = 0
    Time 0.0001, Corr 710, res = 0.000279753, rel res = 0.000145578, material res = 0.000189326, iters = 0
    Time 0.0001, Corr 711, res = 0.000279201, rel res = 0.000144834, material res = 0.000188357, iters = 0
    Time 0.0001, Corr 712, res = 0.000278653, rel res = 0.000144094, material res = 0.000187392, iters = 0
    Time 0.0001, Corr 713, res = 0.000278109, rel res = 0.000143358, material res = 0.000186433, iters = 0
    Time 0.0001, Corr 714, res = 0.000277566, rel res = 0.000142626, material res = 0.000185479, iters = 0
    Time 0.0001, Corr 715, res = 0.000277026, rel res = 0.000141897, material res = 0.00018453, iters = 0
    Time 0.0001, Corr 716, res = 0.000276488, rel res = 0.000141173, material res = 0.000183585, iters = 0
    Time 0.0001, Corr 717, res = 0.000275953, rel res = 0.000140452, material res = 0.000182646, iters = 0
    Time 0.0001, Corr 718, res = 0.000275421, rel res = 0.000139734, material res = 0.000181712, iters = 0
    Time 0.0001, Corr 719, res = 0.000274894, rel res = 0.000139021, material res = 0.000180782, iters = 0
    Time 0.0001, Corr 720, res = 0.000274366, rel res = 0.000138311, material res = 0.000179858, iters = 0
    Time 0.0001, Corr 721, res = 0.000273842, rel res = 0.000137605, material res = 0.000178938, iters = 0
    Time 0.0001, Corr 722, res = 0.000273322, rel res = 0.000136903, material res = 0.000178023, iters = 0
    Time 0.0001, Corr 723, res = 0.0002728, rel res = 0.000136204, material res = 0.000177112, iters = 0
    Time 0.0001, Corr 724, res = 0.000272285, rel res = 0.000135509, material res = 0.000176207, iters = 0
    Time 0.0001, Corr 725, res = 0.00027177, rel res = 0.000134818, material res = 0.000175306, iters = 0
    Time 0.0001, Corr 726, res = 0.000271258, rel res = 0.00013413, material res = 0.00017441, iters = 0
    Time 0.0001, Corr 727, res = 0.000270752, rel res = 0.000133446, material res = 0.000173519, iters = 0
    Time 0.0001, Corr 728, res = 0.000270245, rel res = 0.000132765, material res = 0.000172632, iters = 0
    Time 0.0001, Corr 729, res = 0.000269739, rel res = 0.000132088, material res = 0.00017175, iters = 0
    Time 0.0001, Corr 730, res = 0.000269236, rel res = 0.000131414, material res = 0.000170873, iters = 0
    Time 0.0001, Corr 731, res = 0.00026874, rel res = 0.000130744, material res = 0.00017, iters = 0
    Time 0.0001, Corr 732, res = 0.000268241, rel res = 0.000130077, material res = 0.000169131, iters = 0
    Time 0.0001, Corr 733, res = 0.000267746, rel res = 0.000129414, material res = 0.000168268, iters = 0
    Time 0.0001, Corr 734, res = 0.000267256, rel res = 0.000128754, material res = 0.000167408, iters = 0
    Time 0.0001, Corr 735, res = 0.000266765, rel res = 0.000128097, material res = 0.000166553, iters = 0
    Time 0.0001, Corr 736, res = 0.000266279, rel res = 0.000127444, material res = 0.000165703, iters = 0
    Time 0.0001, Corr 737, res = 0.000265792, rel res = 0.000126795, material res = 0.000164857, iters = 0
    Time 0.0001, Corr 738, res = 0.00026531, rel res = 0.000126148, material res = 0.000164015, iters = 0
[...]
    Time 0.0001, Corr 2450, res = 0.00010266, rel res = 6.66337e-09, material res = 1.17778e-08, iters = 0
    Time 0.0001, Corr 2451, res = 0.000102635, rel res = 6.59886e-09, material res = 1.16871e-08, iters = 0
    Time 0.0001, Corr 2452, res = 0.000102607, rel res = 6.53478e-09, material res = 1.1597e-08, iters = 0
    Time 0.0001, Corr 2453, res = 0.000102582, rel res = 6.47113e-09, material res = 1.15075e-08, iters = 0
    Time 0.0001, Corr 2454, res = 0.000102554, rel res = 6.40791e-09, material res = 1.14186e-08, iters = 0
    Time 0.0001, Corr 2455, res = 0.000102529, rel res = 6.34511e-09, material res = 1.13303e-08, iters = 0
    Time 0.0001, Corr 2456, res = 0.000102502, rel res = 6.28273e-09, material res = 1.12425e-08, iters = 0
    Time 0.0001, Corr 2457, res = 0.000102475, rel res = 6.22077e-09, material res = 1.11553e-08, iters = 0
    Time 0.0001, Corr 2458, res = 0.000102448, rel res = 6.15922e-09, material res = 1.10687e-08, iters = 0
    Time 0.0001, Corr 2459, res = 0.000102422, rel res = 6.09809e-09, material res = 1.09827e-08, iters = 0
    Time 0.0001, Corr 2460, res = 0.000102396, rel res = 6.03737e-09, material res = 1.08973e-08, iters = 0
    Time 0.0001, Corr 2461, res = 0.000102369, rel res = 5.97706e-09, material res = 1.08124e-08, iters = 0
    Time 0.0001, Corr 2462, res = 0.000102342, rel res = 5.91715e-09, material res = 1.07281e-08, iters = 0
    Time 0.0001, Corr 2463, res = 0.000102316, rel res = 5.85765e-09, material res = 1.06443e-08, iters = 0
    Time 0.0001, Corr 2464, res = 0.000102289, rel res = 5.79856e-09, material res = 1.05612e-08, iters = 0
    Time 0.0001, Corr 2465, res = 0.000102263, rel res = 5.73986e-09, material res = 1.04785e-08, iters = 0
    Time 0.0001, Corr 2466, res = 0.000102237, rel res = 5.68156e-09, material res = 1.03964e-08, iters = 0
    Time 0.0001, Corr 2467, res = 0.000102209, rel res = 5.62365e-09, material res = 1.03149e-08, iters = 0
    Time 0.0001, Corr 2468, res = 0.000102183, rel res = 5.56614e-09, material res = 1.02339e-08, iters = 0
    Time 0.0001, Corr 2469, res = 0.000102156, rel res = 5.50901e-09, material res = 1.01535e-08, iters = 0
    Time 0.0001, Corr 2470, res = 0.00010213, rel res = 5.45228e-09, material res = 1.00736e-08, iters = 0
    Time 0.0001, Corr 2471, res = 0.000102104, rel res = 5.39592e-09, material res = 9.99423e-09, iters = 0
    Time 0.0001, Corr 2472, res = 0.000102078, rel res = 5.33996e-09, material res = 9.9154e-09, iters = 0
    Time 0.0001, Corr 2473, res = 0.000102052, rel res = 5.28437e-09, material res = 9.83711e-09, iters = 0
    Time 0.0001, Corr 2474, res = 0.000102025, rel res = 5.22917e-09, material res = 9.75934e-09, iters = 0
    Time 0.0001, Corr 2475, res = 0.000101999, rel res = 5.17434e-09, material res = 9.68211e-09, iters = 0
    Time 0.0001, Corr 2476, res = 0.000101972, rel res = 5.11988e-09, material res = 9.60539e-09, iters = 0
    Time 0.0001, Corr 2477, res = 0.000101945, rel res = 5.0658e-09, material res = 9.5292e-09, iters = 0
    Time 0.0001, Corr 2478, res = 0.000101918, rel res = 5.01208e-09, material res = 9.45353e-09, iters = 0
    Time 0.0001, Corr 2479, res = 0.000101892, rel res = 4.95874e-09, material res = 9.37837e-09, iters = 0
    Time 0.0001, Corr 2480, res = 0.000101866, rel res = 4.90576e-09, material res = 9.30373e-09, iters = 0
    Time 0.0001, Corr 2481, res = 0.000101841, rel res = 4.85314e-09, material res = 9.22959e-09, iters = 0
    Time 0.0001, Corr 2482, res = 0.000101813, rel res = 4.80089e-09, material res = 9.15596e-09, iters = 0
    Time 0.0001, Corr 2483, res = 0.000101786, rel res = 4.74899e-09, material res = 9.08284e-09, iters = 0
    Time 0.0001, Corr 2484, res = 0.000101761, rel res = 4.69745e-09, material res = 9.01022e-09, iters = 0
    Time 0.0001, Corr 2485, res = 0.000101734, rel res = 4.64627e-09, material res = 8.9381e-09, iters = 0
    Time 0.0001, Corr 2486, res = 0.000101709, rel res = 4.59544e-09, material res = 8.86647e-09, iters = 0
    Time 0.0001, Corr 2487, res = 0.000101683, rel res = 4.54496e-09, material res = 8.79534e-09, iters = 0
    Time 0.0001, Corr 2488, res = 0.000101657, rel res = 4.49483e-09, material res = 8.7247e-09, iters = 0
    Time 0.0001, Corr 2489, res = 0.000101629, rel res = 4.44505e-09, material res = 8.65455e-09, iters = 0
    Time 0.0001, Corr 2490, res = 0.000101602, rel res = 4.39561e-09, material res = 8.58488e-09, iters = 0
    Time 0.0001, Corr 2491, res = 0.000101578, rel res = 4.34651e-09, material res = 8.5157e-09, iters = 0
    Time 0.0001, Corr 2492, res = 0.000101551, rel res = 4.29776e-09, material res = 8.447e-09, iters = 0
    Time 0.0001, Corr 2493, res = 0.000101525, rel res = 4.24934e-09, material res = 8.37878e-09, iters = 0
    Time 0.0001, Corr 2494, res = 0.000101497, rel res = 4.20126e-09, material res = 8.31103e-09, iters = 0
    Time 0.0001, Corr 2495, res = 0.000101472, rel res = 4.15352e-09, material res = 8.24376e-09, iters = 0
    Time 0.0001, Corr 2496, res = 0.000101445, rel res = 4.1061e-09, material res = 8.17695e-09, iters = 0
    Time 0.0001, Corr 2497, res = 0.00010142, rel res = 4.05902e-09, material res = 8.11062e-09, iters = 0
    Time 0.0001, Corr 2498, res = 0.000101394, rel res = 4.01227e-09, material res = 8.04476e-09, iters = 0
    Time 0.0001, Corr 2499, res = 0.000101366, rel res = 3.96585e-09, material res = 7.97935e-09, iters = 0
    Time 0.0001, Corr 2500, res = 0.000101341, rel res = 3.91975e-09, material res = 7.91441e-09, iters = 0
    Time 0.0001, Corr 2501, res = 0.000101316, rel res = 3.87397e-09, material res = 7.84992e-09, iters = 0
    Time 0.0001, Corr 2502, res = 0.00010129, rel res = 3.82851e-09, material res = 7.7859e-09, iters = 0
    Time 0.0001, Corr 2503, res = 0.000101262, rel res = 3.78337e-09, material res = 7.72232e-09, iters = 0
    Time 0.0001, Corr 2504, res = 0.000101236, rel res = 3.73856e-09, material res = 7.6592e-09, iters = 0
    Time 0.0001, Corr 2505, res = 0.00010121, rel res = 3.69405e-09, material res = 7.59653e-09, iters = 0
    Time 0.0001, Corr 2506, res = 0.000101184, rel res = 3.64986e-09, material res = 7.5343e-09, iters = 0
    Time 0.0001, Corr 2507, res = 0.000101158, rel res = 3.60598e-09, material res = 7.47252e-09, iters = 0
    Time 0.0001, Corr 2508, res = 0.000101133, rel res = 3.56242e-09, material res = 7.41118e-09, iters = 0
    Time 0.0001, Corr 2509, res = 0.000101106, rel res = 3.51915e-09, material res = 7.35028e-09, iters = 0
    Time 0.0001, Corr 2510, res = 0.00010108, rel res = 3.4762e-09, material res = 7.28982e-09, iters = 0
    Time 0.0001, Corr 2511, res = 0.000101055, rel res = 3.43355e-09, material res = 7.2298e-09, iters = 0
    Time 0.0001, Corr 2512, res = 0.000101026, rel res = 3.39121e-09, material res = 7.1702e-09, iters = 0
    Time 0.0001, Corr 2513, res = 0.000101001, rel res = 3.34916e-09, material res = 7.11104e-09, iters = 0
    Time 0.0001, Corr 2514, res = 0.000100976, rel res = 3.30741e-09, material res = 7.05231e-09, iters = 0
    Time 0.0001, Corr 2515, res = 0.000100948, rel res = 3.26596e-09, material res = 6.99401e-09, iters = 0
    Time 0.0001, Corr 2516, res = 0.000100923, rel res = 3.22481e-09, material res = 6.93613e-09, iters = 0
    Time 0.0001, Corr 2517, res = 0.000100899, rel res = 3.18395e-09, material res = 6.87867e-09, iters = 0
    Time 0.0001, Corr 2518, res = 0.000100872, rel res = 3.14338e-09, material res = 6.82163e-09, iters = 0
    Time 0.0001, Corr 2519, res = 0.000100846, rel res = 3.10311e-09, material res = 6.76501e-09, iters = 0
    Time 0.0001, Corr 2520, res = 0.000100821, rel res = 3.06312e-09, material res = 6.70881e-09, iters = 0
    Time 0.0001, Corr 2521, res = 0.000100793, rel res = 3.02342e-09, material res = 6.65302e-09, iters = 0
    Time 0.0001, Corr 2522, res = 0.000100768, rel res = 2.984e-09, material res = 6.59764e-09, iters = 0
    Time 0.0001, Corr 2523, res = 0.000100743, rel res = 2.94487e-09, material res = 6.54268e-09, iters = 0
    Time 0.0001, Corr 2524, res = 0.000100717, rel res = 2.90602e-09, material res = 6.48812e-09, iters = 0
    Time 0.0001, Corr 2525, res = 0.00010069, rel res = 2.86745e-09, material res = 6.43396e-09, iters = 0
    Time 0.0001, Corr 2526, res = 0.000100665, rel res = 2.82916e-09, material res = 6.38021e-09, iters = 0
    Time 0.0001, Corr 2527, res = 0.000100638, rel res = 2.79114e-09, material res = 6.32687e-09, iters = 0
    Time 0.0001, Corr 2528, res = 0.000100612, rel res = 2.75341e-09, material res = 6.27392e-09, iters = 0
    Time 0.0001, Corr 2529, res = 0.000100586, rel res = 2.71594e-09, material res = 6.22137e-09, iters = 0
    Time 0.0001, Corr 2530, res = 0.000100559, rel res = 2.67875e-09, material res = 6.16921e-09, iters = 0
    Time 0.0001, Corr 2531, res = 0.000100537, rel res = 2.64183e-09, material res = 6.11745e-09, iters = 0
    Time 0.0001, Corr 2532, res = 0.000100509, rel res = 2.60518e-09, material res = 6.06608e-09, iters = 0
    Time 0.0001, Corr 2533, res = 0.000100485, rel res = 2.56879e-09, material res = 6.01511e-09, iters = 0
    Time 0.0001, Corr 2534, res = 0.000100457, rel res = 2.53267e-09, material res = 5.96451e-09, iters = 0
    Time 0.0001, Corr 2535, res = 0.000100432, rel res = 2.49682e-09, material res = 5.91431e-09, iters = 0
    Time 0.0001, Corr 2536, res = 0.000100407, rel res = 2.46123e-09, material res = 5.86449e-09, iters = 0
    Time 0.0001, Corr 2537, res = 0.000100381, rel res = 2.4259e-09, material res = 5.81506e-09, iters = 0
    Time 0.0001, Corr 2538, res = 0.000100354, rel res = 2.39083e-09, material res = 5.766e-09, iters = 0
    Time 0.0001, Corr 2539, res = 0.000100328, rel res = 2.35601e-09, material res = 5.71732e-09, iters = 0
    Time 0.0001, Corr 2540, res = 0.000100302, rel res = 2.32146e-09, material res = 5.66902e-09, iters = 0
    Time 0.0001, Corr 2541, res = 0.000100277, rel res = 2.28716e-09, material res = 5.6211e-09, iters = 0
    Time 0.0001, Corr 2542, res = 0.000100251, rel res = 2.25311e-09, material res = 5.57355e-09, iters = 0
    Time 0.0001, Corr 2543, res = 0.000100226, rel res = 2.21932e-09, material res = 5.52637e-09, iters = 0
    Time 0.0001, Corr 2544, res = 0.0001002, rel res = 2.18578e-09, material res = 5.47956e-09, iters = 0
    Time 0.0001, Corr 2545, res = 0.000100175, rel res = 2.15248e-09, material res = 5.43312e-09, iters = 0
    Time 0.0001, Corr 2546, res = 0.000100148, rel res = 2.11944e-09, material res = 5.38705e-09, iters = 0
    Time 0.0001, Corr 2547, res = 0.000100122, rel res = 2.08664e-09, material res = 5.34134e-09, iters = 0
    Time 0.0001, Corr 2548, res = 0.000100096, rel res = 2.05409e-09, material res = 5.29599e-09, iters = 0
    Time 0.0001, Corr 2549, res = 0.000100072, rel res = 2.02178e-09, material res = 5.25101e-09, iters = 0
    Time 0.0001, Corr 2550, res = 0.000100045, rel res = 1.98971e-09, material res = 5.20638e-09, iters = 0
    Time 0.0001, Corr 2551, res = 0.000100021, rel res = 1.95789e-09, material res = 5.16212e-09, iters = 0
    Time 0.0001, Corr 2552, res = 9.99931e-05, rel res = 1.92631e-09, material res = 5.11821e-09, iters = 0
    Time 0.0001, Corr 2553, res = 9.99686e-05, rel res = 1.89496e-09, material res = 5.07465e-09, iters = 0
    Time 0.0001, Corr 2554, res = 9.99424e-05, rel res = 1.86385e-09, material res = 5.03145e-09, iters = 0
    Time 0.0001, Corr 2555, res = 9.99179e-05, rel res = 1.83298e-09, material res = 4.9886e-09, iters = 0
    Time 0.0001, Corr 2556, res = 9.98919e-05, rel res = 1.80234e-09, material res = 4.9461e-09, iters = 0
    Time 0.0001, Corr 2557, res = 9.98665e-05, rel res = 1.77193e-09, material res = 4.90395e-09, iters = 0
    Time 0.0001, Corr 2558, res = 9.98422e-05, rel res = 1.74176e-09, material res = 4.86215e-09, iters = 0
    Time 0.0001, Corr 2559, res = 9.98155e-05, rel res = 1.71182e-09, material res = 4.82069e-09, iters = 0
    Time 0.0001, Corr 2560, res = 9.9788e-05, rel res = 1.6821e-09, material res = 4.77958e-09, iters = 0
    Time 0.0001, Corr 2561, res = 9.97624e-05, rel res = 1.65262e-09, material res = 4.73881e-09, iters = 0
    Time 0.0001, Corr 2562, res = 9.97384e-05, rel res = 1.62336e-09, material res = 4.69838e-09, iters = 0
    Time 0.0001, Corr 2563, res = 9.97123e-05, rel res = 1.59434e-09, material res = 4.65828e-09, iters = 0
    Time 0.0001, Corr 2564, res = 9.96865e-05, rel res = 1.56553e-09, material res = 4.61853e-09, iters = 0
    Time 0.0001, Corr 2565, res = 9.96621e-05, rel res = 1.53695e-09, material res = 4.57912e-09, iters = 0
    Time 0.0001, Corr 2566, res = 9.96375e-05, rel res = 1.50859e-09, material res = 4.54003e-09, iters = 0
    Time 0.0001, Corr 2567, res = 9.96119e-05, rel res = 1.48045e-09, material res = 4.50129e-09, iters = 0
    Time 0.0001, Corr 2568, res = 9.95864e-05, rel res = 1.45253e-09, material res = 4.46287e-09, iters = 0
    Time 0.0001, Corr 2569, res = 9.95611e-05, rel res = 1.42483e-09, material res = 4.42479e-09, iters = 0
    Time 0.0001, Corr 2570, res = 9.95354e-05, rel res = 1.39736e-09, material res = 4.38703e-09, iters = 0
    Time 0.0001, Corr 2571, res = 9.95112e-05, rel res = 1.37009e-09, material res = 4.34961e-09, iters = 0
    Time 0.0001, Corr 2572, res = 9.9483e-05, rel res = 1.34305e-09, material res = 4.3125e-09, iters = 0
    Time 0.0001, Corr 2573, res = 9.94603e-05, rel res = 1.31622e-09, material res = 4.27573e-09, iters = 0
    Time 0.0001, Corr 2574, res = 9.94328e-05, rel res = 1.2896e-09, material res = 4.23928e-09, iters = 0
    Time 0.0001, Corr 2575, res = 9.94089e-05, rel res = 1.2632e-09, material res = 4.20315e-09, iters = 0
    Time 0.0001, Corr 2576, res = 9.93831e-05, rel res = 1.23701e-09, material res = 4.16734e-09, iters = 0
    Time 0.0001, Corr 2577, res = 9.93588e-05, rel res = 1.21104e-09, material res = 4.13186e-09, iters = 0
    Time 0.0001, Corr 2578, res = 9.93307e-05, rel res = 1.18527e-09, material res = 4.09669e-09, iters = 0
    Time 0.0001, Corr 2579, res = 9.93075e-05, rel res = 1.15972e-09, material res = 4.06184e-09, iters = 0
    Time 0.0001, Corr 2580, res = 9.92806e-05, rel res = 1.13437e-09, material res = 4.0273e-09, iters = 0
    Time 0.0001, Corr 2581, res = 9.92561e-05, rel res = 1.10923e-09, material res = 3.99308e-09, iters = 0
    Time 0.0001, Corr 2582, res = 9.92298e-05, rel res = 1.08431e-09, material res = 3.95917e-09, iters = 0
    Time 0.0001, Corr 2583, res = 9.92047e-05, rel res = 1.05959e-09, material res = 3.92558e-09, iters = 0
    Time 0.0001, Corr 2584, res = 9.91794e-05, rel res = 1.03508e-09, material res = 3.89229e-09, iters = 0
    Time 0.0001, Corr 2585, res = 9.91543e-05, rel res = 1.01077e-09, material res = 3.85932e-09, iters = 0
	The relative residual has converged
    Time 0.0001, Corr 2586, res = 9.91302e-05, rel res = 9.86673e-10, material res = 3.82665e-09, iters = 0

Updating the yield stress
    Max DEpsilonPEq is 0.168185
sigmaY_after dimensions      [1 -1 -2 0 0 0 0];

internalField   nonuniform List<scalar> 6(1.25e+09 1.25e+09 1.27142e+09 1.30386e+09 1.3118e+09 1.30119e+09);

boundaryField
{
    wireDownstream
    {
        type            calculated;
        value           uniform 1.25e+09;
    }
    wireUpstream
    {
        type            calculated;
        value           uniform 1.29917e+09;
    }
    wireTopContact
    {
        type            calculated;
        value           nonuniform List<scalar> 6(1.25e+09 1.25e+09 1.27142e+09 1.30386e+09 1.3118e+09 1.30119e+09);
    }
    front
    {
        type            wedge;
    }
    back
    {
        type            wedge;
    }
}


DSigmay dimensions      [1 -1 -2 0 0 0 0];

internalField   nonuniform List<scalar> 6(0 0 2.14163e+07 5.38614e+07 6.17951e+07 5.11871e+07);

boundaryField
{
    wireDownstream
    {
        type            calculated;
        value           uniform 0;
    }
    wireUpstream
    {
        type            calculated;
        value           uniform 4.91656e+07;
    }
    wireTopContact
    {
        type            calculated;
        value           nonuniform List<scalar> 6(0 0 2.1416e+07 5.3863e+07 6.17959e+07 5.11859e+07);
    }
    front
    {
        type            wedge;
    }
    back
    {
        type            wedge;
    }
}


    4 cells are actively yielding

elastoPlasticKirchhoff: RhieChowScaleFactor = 0.1
ExecutionTime = 2.74 s clockTime = 3 s

Coupling iteration 1 end

SigmaY_before= dimensions      [1 -1 -2 0 0 0 0];

internalField   uniform 1.25e+09;

boundaryField
{
    wireDownstream
    {
        type            calculated;
        value           uniform 1.25e+09;
    }
    wireUpstream
    {
        type            calculated;
        value           uniform 1.25e+09;
    }
    wireTopContact
    {
        type            calculated;
        value           uniform 1.25e+09;
    }
    front
    {
        type            wedge;
    }
    back
    {
        type            wedge;
    }
}


Coupling iteration = 2

    Time 0.0001, Corr 0, res = 9.91021e-05, rel res = 9.62778e-10, material res = 3.7943e-09, iters = 0
    Time 0.0001, Corr 1, res = 9.90782e-05, rel res = 9.39094e-10, material res = 3.76224e-09, iters = 0
	The relative residual has converged
    Time 0.0001, Corr 2, res = 9.90525e-05, rel res = 9.15615e-10, material res = 3.7305e-09, iters = 0

Updating the yield stress
    Max DEpsilonPEq is 0.168185
sigmaY_after dimensions      [1 -1 -2 0 0 0 0];

internalField   nonuniform List<scalar> 6(1.25e+09 1.25e+09 1.27142e+09 1.30386e+09 1.3118e+09 1.30119e+09);

boundaryField
{
    wireDownstream
    {
        type            calculated;
        value           uniform 1.25e+09;
    }
    wireUpstream
    {
        type            calculated;
        value           uniform 1.29917e+09;
    }
    wireTopContact
    {
        type            calculated;
        value           nonuniform List<scalar> 6(1.25e+09 1.25e+09 1.27142e+09 1.30386e+09 1.3118e+09 1.30119e+09);
    }
    front
    {
        type            wedge;
    }
    back
    {
        type            wedge;
    }
}


DSigmay dimensions      [1 -1 -2 0 0 0 0];

internalField   nonuniform List<scalar> 6(0 0 2.14163e+07 5.38614e+07 6.17951e+07 5.11871e+07);

boundaryField
{
    wireDownstream
    {
        type            calculated;
        value           uniform 0;
    }
    wireUpstream
    {
        type            calculated;
        value           uniform 4.91656e+07;
    }
    wireTopContact
    {
        type            calculated;
        value           nonuniform List<scalar> 6(0 0 2.1416e+07 5.3863e+07 6.17959e+07 5.11859e+07);
    }
    front
    {
        type            wedge;
    }
    back
    {
        type            wedge;
    }
}


    4 cells are actively yielding

elastoPlasticKirchhoff: RhieChowScaleFactor = 0.1
ExecutionTime = 2.75 s clockTime = 3 s

Coupling iteration 2 end

Max sigmaCauchyEq = 1.30106e+09
Max epsilonTrueEq = 0.163536


End

Removing the field sigmaY from the objectRegistry and setting the field pointer to NULL
Removing the field DSigmaY from the objectRegistry and setting the field pointer to NULL
Removing the field epsilonP from the objectRegistry and setting the field pointer to NULL
Removing the field DEpsilonP from the objectRegistry and setting the field pointer to NULL
Removing the field bEbarTrial from the objectRegistry and setting the field pointer to NULL
Removing the field bEbar from the objectRegistry and setting the field pointer to NULL
Removing the field DEpsilonPEq from the objectRegistry and setting the field pointer to NULL
Removing the field DLambda from the objectRegistry and setting the field pointer to NULL
Removing the field epsilonPEq from the objectRegistry and setting the field pointer to NULL
Removing the field activeYield from the objectRegistry and setting the field pointer to NULL
Removing the field plasticN from the objectRegistry and setting the field pointer to NULL
Removing the field sigmaHyd from the objectRegistry and setting the field pointer to NULL
